/*--------------------------------*- C++ -*----------------------------------*\
| =========                 |                                                 |
| \\      /  F ield         | OpenFOAM: The Open Source CFD Toolbox           |
|  \\    /   O peration     | Version:  v2012                                 |
|   \\  /    A nd           | Website:  www.openfoam.com                      |
|    \\/     M anipulation  |                                                 |
\*---------------------------------------------------------------------------*/
FoamFile
{
    version     2.0;
    format      ascii;
    class       dictionary;
    location    "constant";
    object      turbulenceProperties;
}
// * * * * * * * * * * * * * * * * * * * * * * * * * * * * * * * * * * * * * //

simulationType  laminar;

/*RAS
{
    RASModel        kEpsilon;

    turbulence      on;

    printCoeffs     on;

	// Optional model coefficieints
    Cmu             0.09;
    C1              1.44;
    C2              1.92;
    C3              0.0;
    sigmak          1.0;
    sigmaEps        1.3;
}*/


// ************************************************************************* //
