/*--------------------------------*- C++ -*----------------------------------*\
| =========                 |                                                 |
| \\      /  F ield         | OpenFOAM: The Open Source CFD Toolbox           |
|  \\    /   O peration     | Version:  3.0.1                                 |
|   \\  /    A nd           | Web:      www.OpenFOAM.org                      |
|    \\/     M anipulation  |                                                 |
\*---------------------------------------------------------------------------*/
FoamFile
{
    version     2.0;
    format      ascii;
    class       polyBoundaryMesh;
    location    "constant/polyMesh";
    object      boundary;
}
// * * * * * * * * * * * * * * * * * * * * * * * * * * * * * * * * * * * * * //

7
(
    sides
    {
        type            patch;
        nFaces          348;
        startFace       41318;
    }
    slope
    {
        type            wall;
        inGroups        1(wall);
        nFaces          4146;
        startFace       41666;
    }
    atmosphere
    {
        type            patch;
        nFaces          3555;
        startFace       45812;
    }
    procBoundary1to0
    {
        type            processor;
        inGroups        1(processor);
        nFaces          497;
        startFace       49367;
        matchTolerance  0.0001;
        transform       unknown;
        myProcNo        1;
        neighbProcNo    0;
    }
    procBoundary1to3
    {
        type            processor;
        inGroups        1(processor);
        nFaces          6;
        startFace       49864;
        matchTolerance  0.0001;
        transform       unknown;
        myProcNo        1;
        neighbProcNo    3;
    }
    procBoundary1to5
    {
        type            processor;
        inGroups        1(processor);
        nFaces          1184;
        startFace       49870;
        matchTolerance  0.0001;
        transform       unknown;
        myProcNo        1;
        neighbProcNo    5;
    }
    procBoundary1to7
    {
        type            processor;
        inGroups        1(processor);
        nFaces          4;
        startFace       51054;
        matchTolerance  0.0001;
        transform       unknown;
        myProcNo        1;
        neighbProcNo    7;
    }
)

// ************************************************************************* //
