/*--------------------------------*- C++ -*----------------------------------*\
  =========                 |
  \\      /  F ield         | OpenFOAM: The Open Source CFD Toolbox
   \\    /   O peration     | Website:  https://openfoam.org
    \\  /    A nd           | Version:  7  
     \\/     M anipulation  |
\*---------------------------------------------------------------------------*/
FoamFile
{
    version     2.0;
    format      ascii;
    class       dictionary;
    location    "constant";
    object      transportProperties;
}
// * * * * * * * * * * * * * * * * * * * * * * * * * * * * * * * * * * * * * //

phases (water air);

water
{
	transportModel HerschelBulkley;
	HerschelBulkleyCoeffs
	{
		nu0             nu0   [ 0 2 -1 0 0 0 0 ] 1e7;
		tau0            tau0  [ 0 2 -2 0 0 0 0 ] 9;
		k               k     [ 0 2 -1 0 0 0 0 ] 4;
		n               n     [ 0 0  0 0 0 0 0 ] 0.7;
	}
    rho             rho [ 1 -3 0 0 0 0 0 ] 200;
}

air
{
    transportModel  Newtonian;
    nu              1.48e-05;
    rho             1;
}

sigma           0;


// ************************************************************************* //
