/*--------------------------------*- C++ -*----------------------------------*\
| =========                 |                                                 |
| \\      /  F ield         | OpenFOAM: The Open Source CFD Toolbox           |
|  \\    /   O peration     | Version:  v1912                                 |
|   \\  /    A nd           | Website:  www.openfoam.com                      |
|    \\/     M anipulation  |                                                 |
\*---------------------------------------------------------------------------*/
FoamFile
{
    version     2.0;
    format      ascii;
    class       dictionary;
    object      blockMeshDict;
}
// * * * * * * * * * * * * * * * * * * * * * * * * * * * * * * * * * * * * * //

scale   0.001;

vertices
(
	(0   0 0  )
	(100 0 0  )
	(100 5 0  )
	(0   5 0  )
	(0   0 10 )
	(100 0 10 )
	(100 5 10 )
	(0   5 10 )
	(0   0 20 )
	(100 0 20 )
	(100 5 20 )
	(0   5 20 )
	(0   0 30 )
	(100 0 30 )
	(100 5 30 )
	(0   5 30 )
);

blocks
(
	//original with solving the smallest eddies
	//hex (0 1 2 3 4 5 6 7)   (17850 60 595)  simpleGrading (1 1 1)
	//hex (4 5 6 7 8 9 10 11) (17850 60 1190) simpleGrading (1 1 1)
	//test one
	//hex (0 1 2 3 4 5 6 7)       (300 5 5)  simpleGrading (1 1 1)
	//hex (4 5 6 7 8 9 10 11)     (300 5 5) simpleGrading (1 1 1)
	//hex (8 9 10 11 12 13 14 15) (300 5 5) simpleGrading (1 1 1)
	hex (0 1 2 3 4 5 6 7)       (200 1 20)  simpleGrading (1 1 1)
	hex (4 5 6 7 8 9 10 11)     (200 1 20) simpleGrading (1 1 1)
	hex (8 9 10 11 12 13 14 15) (200 1 20) simpleGrading (1 1 1)
);

edges
(
);

boundary
(
	leftInletWall
	{
		type patch;
		faces
		(
			(4 8 11 7)
		);
	}
	leftWall
	{
		type wall;
		faces
		(
			(0 4 7 3)
			(8 12 15 11)
		);
	}
	rightWall
	{
		type patch;
		faces
		(
			(1 2 6 5)
			(5 6 10 9)
			(9 10 14 13)
		);
	}
	lowerWall
	{
		type wall;
		faces
		(
			(3 2 1 0)
			//rightWall
		);
	}
	atmosphere
	{
		type wall;
		//type patch;
		faces
		(
			(12 13 14 15)
		);
	}
	sides
	{
		type empty;
		faces
		(
			(0 1 5 4)
			(4 5 9 8)
			(8 9 13 12)
			(7 6 2 3)
			(11 10 6 7)
			(15 14 10 11)
		);
	}
);

mergePatchPairs
(
);

// ************************************************************************* //
