/*--------------------------------*- C++ -*----------------------------------*\
  =========                 |
  \\      /  F ield         | OpenFOAM: The Open Source CFD Toolbox
   \\    /   O peration     | Website:  https://openfoam.org
    \\  /    A nd           | Version:  7  
     \\/     M anipulation  |
\*---------------------------------------------------------------------------*/
FoamFile
{
    version     2.0;
    format      ascii;
    class       dictionary;
    location    "system";
    object      fvSolution;
}
// * * * * * * * * * * * * * * * * * * * * * * * * * * * * * * * * * * * * * //

solvers
{
    "alpha.water.*"
    {
        nAlphaCorr      2;
        nAlphaSubCycles 1;
        cAlpha          1;

        MULESCorr       yes;
        nLimiterIter    3;

        solver          PBiCGStab;
        preconditioner  DILU;
        tolerance       1e-8;
        relTol          0;
    }

    "pcorr.*"
    {
        solver          PCG;
        preconditioner  DIC;
        tolerance       1e-5;
        relTol          0;
    }

    p_rgh
    {
		solver PCG;
		maxIter 300;
		preconditioner
		{    
			preconditioner GAMG;
			tolerance 1e-5;
			relTol 1e-2;
			smoother FDIC;
			//GaussSeidel;
			nPreSweeps 0;
			nPostSweeps 1;
			cacheAgglomeration true;
			nCellsInCoarsestLevel 500;
			agglomerator faceAreaPair;
			mergeLevels 1;
		}
		tolerance 1e-7;
		relTol 0;
	}

    p_rghFinal
    {
        $p_rgh;
        relTol          0;
    }

    "(U|k|epsilon).*"
    {
        solver          PBiCGStab;
        preconditioner  DILU;
        tolerance       1e-08;
        relTol          0;
        minIter         1;
    }
}

PIMPLE
{
    momentumPredictor   yes;
    nOuterCorrectors    1;
    nCorrectors         3;
    nNonOrthogonalCorrectors 0;
}

relaxationFactors
{
    equations
    {
        ".*"                1;
    }
}

// ************************************************************************* //
