FoamFile
{
	version	2.0;
	format	ascii;
	class	dictionary;
	location	"system";
	object	setFieldsDict;
}
defaultFieldValues
(
	volScalarFieldValue alpha.water 0
);
regions
(
	rotatedBoxToCell
	{
		origin (620.000000 565.000000 186.875397);
		i (5.000000 0.000000 0.073303);
		j (0.000000 5.000000 3.104004);
		k (0.000000 0.000000 5.000000);
		fieldValues
		(
			volScalarFieldValue alpha.water 1
		);
	}
	rotatedBoxToCell
	{
		origin (625.000000 565.000000 186.948700);
		i (5.000000 0.000000 -0.114594);
		j (0.000000 5.000000 3.276978);
		k (0.000000 0.000000 5.000000);
		fieldValues
		(
			volScalarFieldValue alpha.water 1
		);
	}
	rotatedBoxToCell
	{
		origin (625.000000 570.000000 190.225677);
		i (5.000000 0.000000 0.006409);
		j (0.000000 5.000000 2.920105);
		k (0.000000 0.000000 5.000000);
		fieldValues
		(
			volScalarFieldValue alpha.water 1
		);
	}
	rotatedBoxToCell
	{
		origin (630.000000 565.000000 186.834106);
		i (5.000000 0.000000 -0.324219);
		j (0.000000 5.000000 3.397980);
		k (0.000000 0.000000 5.000000);
		fieldValues
		(
			volScalarFieldValue alpha.water 1
		);
	}
	rotatedBoxToCell
	{
		origin (630.000000 570.000000 190.232086);
		i (5.000000 0.000000 -0.252075);
		j (0.000000 5.000000 3.043396);
		k (0.000000 0.000000 5.000000);
		fieldValues
		(
			volScalarFieldValue alpha.water 1
		);
	}
	rotatedBoxToCell
	{
		origin (630.000000 575.000000 193.275482);
		i (5.000000 0.000000 -0.146362);
		j (0.000000 5.000000 2.898987);
		k (0.000000 0.000000 5.000000);
		fieldValues
		(
			volScalarFieldValue alpha.water 1
		);
	}
	rotatedBoxToCell
	{
		origin (635.000000 560.000000 182.977600);
		i (5.000000 0.000000 -0.394287);
		j (0.000000 5.000000 3.532288);
		k (0.000000 0.000000 5.000000);
		fieldValues
		(
			volScalarFieldValue alpha.water 1
		);
	}
	rotatedBoxToCell
	{
		origin (635.000000 565.000000 186.509888);
		i (5.000000 0.000000 -0.485077);
		j (0.000000 5.000000 3.470123);
		k (0.000000 0.000000 5.000000);
		fieldValues
		(
			volScalarFieldValue alpha.water 1
		);
	}
	rotatedBoxToCell
	{
		origin (635.000000 570.000000 189.980011);
		i (5.000000 0.000000 -0.478333);
		j (0.000000 5.000000 3.149109);
		k (0.000000 0.000000 5.000000);
		fieldValues
		(
			volScalarFieldValue alpha.water 1
		);
	}
	rotatedBoxToCell
	{
		origin (635.000000 575.000000 193.129120);
		i (5.000000 0.000000 -0.390747);
		j (0.000000 5.000000 3.033203);
		k (0.000000 0.000000 5.000000);
		fieldValues
		(
			volScalarFieldValue alpha.water 1
		);
	}
	rotatedBoxToCell
	{
		origin (635.000000 580.000000 196.162323);
		i (5.000000 0.000000 -0.237610);
		j (0.000000 5.000000 3.000854);
		k (0.000000 0.000000 5.000000);
		fieldValues
		(
			volScalarFieldValue alpha.water 1
		);
	}
	rotatedBoxToCell
	{
		origin (640.000000 560.000000 182.583313);
		i (5.000000 0.000000 -0.214600);
		j (0.000000 5.000000 3.441498);
		k (0.000000 0.000000 5.000000);
		fieldValues
		(
			volScalarFieldValue alpha.water 1
		);
	}
	rotatedBoxToCell
	{
		origin (640.000000 565.000000 186.024811);
		i (5.000000 0.000000 -0.477325);
		j (0.000000 5.000000 3.476868);
		k (0.000000 0.000000 5.000000);
		fieldValues
		(
			volScalarFieldValue alpha.water 1
		);
	}
	rotatedBoxToCell
	{
		origin (640.000000 570.000000 189.501678);
		i (5.000000 0.000000 -0.619995);
		j (0.000000 5.000000 3.236694);
		k (0.000000 0.000000 5.000000);
		fieldValues
		(
			volScalarFieldValue alpha.water 1
		);
	}
	rotatedBoxToCell
	{
		origin (640.000000 575.000000 192.738373);
		i (5.000000 0.000000 -0.556396);
		j (0.000000 5.000000 3.186340);
		k (0.000000 0.000000 5.000000);
		fieldValues
		(
			volScalarFieldValue alpha.water 1
		);
	}
	rotatedBoxToCell
	{
		origin (640.000000 580.000000 195.924713);
		i (5.000000 0.000000 -0.384094);
		j (0.000000 5.000000 3.155701);
		k (0.000000 0.000000 5.000000);
		fieldValues
		(
			volScalarFieldValue alpha.water 1
		);
	}
	rotatedBoxToCell
	{
		origin (640.000000 585.000000 199.080414);
		i (5.000000 0.000000 -0.228333);
		j (0.000000 5.000000 3.151489);
		k (0.000000 0.000000 5.000000);
		fieldValues
		(
			volScalarFieldValue alpha.water 1
		);
	}
	rotatedBoxToCell
	{
		origin (645.000000 560.000000 182.368713);
		i (5.000000 0.000000 0.164795);
		j (0.000000 5.000000 3.178772);
		k (0.000000 0.000000 5.000000);
		fieldValues
		(
			volScalarFieldValue alpha.water 1
		);
	}
	rotatedBoxToCell
	{
		origin (645.000000 565.000000 185.547485);
		i (5.000000 0.000000 -0.250000);
		j (0.000000 5.000000 3.334198);
		k (0.000000 0.000000 5.000000);
		fieldValues
		(
			volScalarFieldValue alpha.water 1
		);
	}
	rotatedBoxToCell
	{
		origin (645.000000 570.000000 188.881683);
		i (5.000000 0.000000 -0.618408);
		j (0.000000 5.000000 3.300293);
		k (0.000000 0.000000 5.000000);
		fieldValues
		(
			volScalarFieldValue alpha.water 1
		);
	}
	rotatedBoxToCell
	{
		origin (645.000000 575.000000 192.181976);
		i (5.000000 0.000000 -0.565369);
		j (0.000000 5.000000 3.358643);
		k (0.000000 0.000000 5.000000);
		fieldValues
		(
			volScalarFieldValue alpha.water 1
		);
	}
	rotatedBoxToCell
	{
		origin (645.000000 580.000000 195.540619);
		i (5.000000 0.000000 -0.402832);
		j (0.000000 5.000000 3.311462);
		k (0.000000 0.000000 5.000000);
		fieldValues
		(
			volScalarFieldValue alpha.water 1
		);
	}
	rotatedBoxToCell
	{
		origin (645.000000 585.000000 198.852081);
		i (5.000000 0.000000 -0.266357);
		j (0.000000 5.000000 3.295532);
		k (0.000000 0.000000 5.000000);
		fieldValues
		(
			volScalarFieldValue alpha.water 1
		);
	}
	rotatedBoxToCell
	{
		origin (645.000000 590.000000 202.147614);
		i (5.000000 0.000000 -0.151001);
		j (0.000000 5.000000 3.330078);
		k (0.000000 0.000000 5.000000);
		fieldValues
		(
			volScalarFieldValue alpha.water 1
		);
	}
	rotatedBoxToCell
	{
		origin (650.000000 560.000000 182.533508);
		i (5.000000 0.000000 0.832794);
		j (0.000000 5.000000 2.763977);
		k (0.000000 0.000000 5.000000);
		fieldValues
		(
			volScalarFieldValue alpha.water 1
		);
	}
	rotatedBoxToCell
	{
		origin (650.000000 565.000000 185.297485);
		i (5.000000 0.000000 0.329315);
		j (0.000000 5.000000 2.965790);
		k (0.000000 0.000000 5.000000);
		fieldValues
		(
			volScalarFieldValue alpha.water 1
		);
	}
	rotatedBoxToCell
	{
		origin (650.000000 570.000000 188.263275);
		i (5.000000 0.000000 -0.136078);
		j (0.000000 5.000000 3.353333);
		k (0.000000 0.000000 5.000000);
		fieldValues
		(
			volScalarFieldValue alpha.water 1
		);
	}
	rotatedBoxToCell
	{
		origin (650.000000 575.000000 191.616608);
		i (5.000000 0.000000 -0.262634);
		j (0.000000 5.000000 3.521179);
		k (0.000000 0.000000 5.000000);
		fieldValues
		(
			volScalarFieldValue alpha.water 1
		);
	}
	rotatedBoxToCell
	{
		origin (650.000000 580.000000 195.137787);
		i (5.000000 0.000000 -0.241760);
		j (0.000000 5.000000 3.447937);
		k (0.000000 0.000000 5.000000);
		fieldValues
		(
			volScalarFieldValue alpha.water 1
		);
	}
	rotatedBoxToCell
	{
		origin (650.000000 585.000000 198.585724);
		i (5.000000 0.000000 -0.196350);
		j (0.000000 5.000000 3.410889);
		k (0.000000 0.000000 5.000000);
		fieldValues
		(
			volScalarFieldValue alpha.water 1
		);
	}
	rotatedBoxToCell
	{
		origin (650.000000 590.000000 201.996613);
		i (5.000000 0.000000 -0.143799);
		j (0.000000 5.000000 3.406372);
		k (0.000000 0.000000 5.000000);
		fieldValues
		(
			volScalarFieldValue alpha.water 1
		);
	}
	rotatedBoxToCell
	{
		origin (650.000000 595.000000 205.402985);
		i (5.000000 0.000000 -0.113403);
		j (0.000000 5.000000 3.084595);
		k (0.000000 0.000000 5.000000);
		fieldValues
		(
			volScalarFieldValue alpha.water 1
		);
	}
	rotatedBoxToCell
	{
		origin (655.000000 560.000000 183.366302);
		i (5.000000 0.000000 1.299103);
		j (0.000000 5.000000 2.260498);
		k (0.000000 0.000000 5.000000);
		fieldValues
		(
			volScalarFieldValue alpha.water 1
		);
	}
	rotatedBoxToCell
	{
		origin (655.000000 565.000000 185.626801);
		i (5.000000 0.000000 0.704285);
		j (0.000000 5.000000 2.500397);
		k (0.000000 0.000000 5.000000);
		fieldValues
		(
			volScalarFieldValue alpha.water 1
		);
	}
	rotatedBoxToCell
	{
		origin (655.000000 570.000000 188.127197);
		i (5.000000 0.000000 0.398407);
		j (0.000000 5.000000 3.226776);
		k (0.000000 0.000000 5.000000);
		fieldValues
		(
			volScalarFieldValue alpha.water 1
		);
	}
	rotatedBoxToCell
	{
		origin (655.000000 575.000000 191.353973);
		i (5.000000 0.000000 0.168152);
		j (0.000000 5.000000 3.542053);
		k (0.000000 0.000000 5.000000);
		fieldValues
		(
			volScalarFieldValue alpha.water 1
		);
	}
	rotatedBoxToCell
	{
		origin (655.000000 580.000000 194.896027);
		i (5.000000 0.000000 0.026062);
		j (0.000000 5.000000 3.493347);
		k (0.000000 0.000000 5.000000);
		fieldValues
		(
			volScalarFieldValue alpha.water 1
		);
	}
	rotatedBoxToCell
	{
		origin (655.000000 585.000000 198.389374);
		i (5.000000 0.000000 -0.059570);
		j (0.000000 5.000000 3.463440);
		k (0.000000 0.000000 5.000000);
		fieldValues
		(
			volScalarFieldValue alpha.water 1
		);
	}
	rotatedBoxToCell
	{
		origin (655.000000 590.000000 201.852814);
		i (5.000000 0.000000 -0.104431);
		j (0.000000 5.000000 3.436768);
		k (0.000000 0.000000 5.000000);
		fieldValues
		(
			volScalarFieldValue alpha.water 1
		);
	}
	rotatedBoxToCell
	{
		origin (655.000000 595.000000 205.289581);
		i (5.000000 0.000000 -0.127686);
		j (0.000000 5.000000 3.099304);
		k (0.000000 0.000000 5.000000);
		fieldValues
		(
			volScalarFieldValue alpha.water 1
		);
	}
	rotatedBoxToCell
	{
		origin (655.000000 600.000000 208.388885);
		i (5.000000 0.000000 -0.140869);
		j (0.000000 5.000000 2.820496);
		k (0.000000 0.000000 5.000000);
		fieldValues
		(
			volScalarFieldValue alpha.water 1
		);
	}
	rotatedBoxToCell
	{
		origin (660.000000 560.000000 184.665405);
		i (5.000000 0.000000 1.865784);
		j (0.000000 5.000000 1.665680);
		k (0.000000 0.000000 5.000000);
		fieldValues
		(
			volScalarFieldValue alpha.water 1
		);
	}
	rotatedBoxToCell
	{
		origin (660.000000 565.000000 186.331085);
		i (5.000000 0.000000 1.421326);
		j (0.000000 5.000000 2.194519);
		k (0.000000 0.000000 5.000000);
		fieldValues
		(
			volScalarFieldValue alpha.water 1
		);
	}
	rotatedBoxToCell
	{
		origin (660.000000 570.000000 188.525604);
		i (5.000000 0.000000 1.176514);
		j (0.000000 5.000000 2.996521);
		k (0.000000 0.000000 5.000000);
		fieldValues
		(
			volScalarFieldValue alpha.water 1
		);
	}
	rotatedBoxToCell
	{
		origin (660.000000 575.000000 191.522125);
		i (5.000000 0.000000 0.747498);
		j (0.000000 5.000000 3.399963);
		k (0.000000 0.000000 5.000000);
		fieldValues
		(
			volScalarFieldValue alpha.water 1
		);
	}
	rotatedBoxToCell
	{
		origin (660.000000 580.000000 194.922089);
		i (5.000000 0.000000 0.380981);
		j (0.000000 5.000000 3.407715);
		k (0.000000 0.000000 5.000000);
		fieldValues
		(
			volScalarFieldValue alpha.water 1
		);
	}
	rotatedBoxToCell
	{
		origin (660.000000 585.000000 198.329803);
		i (5.000000 0.000000 0.119080);
		j (0.000000 5.000000 3.418579);
		k (0.000000 0.000000 5.000000);
		fieldValues
		(
			volScalarFieldValue alpha.water 1
		);
	}
	rotatedBoxToCell
	{
		origin (660.000000 590.000000 201.748383);
		i (5.000000 0.000000 -0.056702);
		j (0.000000 5.000000 3.413513);
		k (0.000000 0.000000 5.000000);
		fieldValues
		(
			volScalarFieldValue alpha.water 1
		);
	}
	rotatedBoxToCell
	{
		origin (660.000000 595.000000 205.161896);
		i (5.000000 0.000000 -0.151672);
		j (0.000000 5.000000 3.086121);
		k (0.000000 0.000000 5.000000);
		fieldValues
		(
			volScalarFieldValue alpha.water 1
		);
	}
	rotatedBoxToCell
	{
		origin (660.000000 600.000000 208.248016);
		i (5.000000 0.000000 -0.185730);
		j (0.000000 5.000000 2.831909);
		k (0.000000 0.000000 5.000000);
		fieldValues
		(
			volScalarFieldValue alpha.water 1
		);
	}
	rotatedBoxToCell
	{
		origin (660.000000 605.000000 211.079926);
		i (5.000000 0.000000 -0.164001);
		j (0.000000 5.000000 2.600891);
		k (0.000000 0.000000 5.000000);
		fieldValues
		(
			volScalarFieldValue alpha.water 1
		);
	}
	rotatedBoxToCell
	{
		origin (665.000000 565.000000 187.752411);
		i (5.000000 0.000000 2.252197);
		j (0.000000 5.000000 1.949707);
		k (0.000000 0.000000 5.000000);
		fieldValues
		(
			volScalarFieldValue alpha.water 1
		);
	}
	rotatedBoxToCell
	{
		origin (665.000000 570.000000 189.702118);
		i (5.000000 0.000000 1.818359);
		j (0.000000 5.000000 2.567505);
		k (0.000000 0.000000 5.000000);
		fieldValues
		(
			volScalarFieldValue alpha.water 1
		);
	}
	rotatedBoxToCell
	{
		origin (665.000000 575.000000 192.269623);
		i (5.000000 0.000000 1.337158);
		j (0.000000 5.000000 3.033447);
		k (0.000000 0.000000 5.000000);
		fieldValues
		(
			volScalarFieldValue alpha.water 1
		);
	}
	rotatedBoxToCell
	{
		origin (665.000000 580.000000 195.303070);
		i (5.000000 0.000000 0.769714);
		j (0.000000 5.000000 3.145813);
		k (0.000000 0.000000 5.000000);
		fieldValues
		(
			volScalarFieldValue alpha.water 1
		);
	}
	rotatedBoxToCell
	{
		origin (665.000000 585.000000 198.448883);
		i (5.000000 0.000000 0.335693);
		j (0.000000 5.000000 3.242798);
		k (0.000000 0.000000 5.000000);
		fieldValues
		(
			volScalarFieldValue alpha.water 1
		);
	}
	rotatedBoxToCell
	{
		origin (665.000000 590.000000 201.691681);
		i (5.000000 0.000000 0.014343);
		j (0.000000 5.000000 3.318542);
		k (0.000000 0.000000 5.000000);
		fieldValues
		(
			volScalarFieldValue alpha.water 1
		);
	}
	rotatedBoxToCell
	{
		origin (665.000000 595.000000 205.010223);
		i (5.000000 0.000000 -0.181702);
		j (0.000000 5.000000 3.052063);
		k (0.000000 0.000000 5.000000);
		fieldValues
		(
			volScalarFieldValue alpha.water 1
		);
	}
	rotatedBoxToCell
	{
		origin (665.000000 600.000000 208.062286);
		i (5.000000 0.000000 -0.234375);
		j (0.000000 5.000000 2.853638);
		k (0.000000 0.000000 5.000000);
		fieldValues
		(
			volScalarFieldValue alpha.water 1
		);
	}
	rotatedBoxToCell
	{
		origin (665.000000 605.000000 210.915924);
		i (5.000000 0.000000 -0.196533);
		j (0.000000 5.000000 2.619263);
		k (0.000000 0.000000 5.000000);
		fieldValues
		(
			volScalarFieldValue alpha.water 1
		);
	}
	rotatedBoxToCell
	{
		origin (665.000000 610.000000 213.535187);
		i (5.000000 0.000000 -0.147705);
		j (0.000000 5.000000 2.530334);
		k (0.000000 0.000000 5.000000);
		fieldValues
		(
			volScalarFieldValue alpha.water 1
		);
	}
	rotatedBoxToCell
	{
		origin (665.000000 615.000000 216.065521);
		i (5.000000 0.000000 -0.066101);
		j (0.000000 5.000000 2.554565);
		k (0.000000 0.000000 5.000000);
		fieldValues
		(
			volScalarFieldValue alpha.water 1
		);
	}
	rotatedBoxToCell
	{
		origin (670.000000 570.000000 191.520477);
		i (5.000000 0.000000 2.218445);
		j (0.000000 5.000000 2.086304);
		k (0.000000 0.000000 5.000000);
		fieldValues
		(
			volScalarFieldValue alpha.water 1
		);
	}
	rotatedBoxToCell
	{
		origin (670.000000 575.000000 193.606781);
		i (5.000000 0.000000 1.731689);
		j (0.000000 5.000000 2.466003);
		k (0.000000 0.000000 5.000000);
		fieldValues
		(
			volScalarFieldValue alpha.water 1
		);
	}
	rotatedBoxToCell
	{
		origin (670.000000 580.000000 196.072784);
		i (5.000000 0.000000 1.139343);
		j (0.000000 5.000000 2.711792);
		k (0.000000 0.000000 5.000000);
		fieldValues
		(
			volScalarFieldValue alpha.water 1
		);
	}
	rotatedBoxToCell
	{
		origin (670.000000 585.000000 198.784576);
		i (5.000000 0.000000 0.602600);
		j (0.000000 5.000000 2.921448);
		k (0.000000 0.000000 5.000000);
		fieldValues
		(
			volScalarFieldValue alpha.water 1
		);
	}
	rotatedBoxToCell
	{
		origin (670.000000 590.000000 201.706024);
		i (5.000000 0.000000 0.168457);
		j (0.000000 5.000000 3.122498);
		k (0.000000 0.000000 5.000000);
		fieldValues
		(
			volScalarFieldValue alpha.water 1
		);
	}
	rotatedBoxToCell
	{
		origin (670.000000 595.000000 204.828522);
		i (5.000000 0.000000 -0.153503);
		j (0.000000 5.000000 2.999390);
		k (0.000000 0.000000 5.000000);
		fieldValues
		(
			volScalarFieldValue alpha.water 1
		);
	}
	rotatedBoxToCell
	{
		origin (670.000000 600.000000 207.827911);
		i (5.000000 0.000000 -0.227417);
		j (0.000000 5.000000 2.891479);
		k (0.000000 0.000000 5.000000);
		fieldValues
		(
			volScalarFieldValue alpha.water 1
		);
	}
	rotatedBoxToCell
	{
		origin (670.000000 605.000000 210.719391);
		i (5.000000 0.000000 -0.190613);
		j (0.000000 5.000000 2.668091);
		k (0.000000 0.000000 5.000000);
		fieldValues
		(
			volScalarFieldValue alpha.water 1
		);
	}
	rotatedBoxToCell
	{
		origin (670.000000 610.000000 213.387482);
		i (5.000000 0.000000 -0.123169);
		j (0.000000 5.000000 2.611938);
		k (0.000000 0.000000 5.000000);
		fieldValues
		(
			volScalarFieldValue alpha.water 1
		);
	}
	rotatedBoxToCell
	{
		origin (670.000000 615.000000 215.999420);
		i (5.000000 0.000000 -0.012939);
		j (0.000000 5.000000 2.662598);
		k (0.000000 0.000000 5.000000);
		fieldValues
		(
			volScalarFieldValue alpha.water 1
		);
	}
	rotatedBoxToCell
	{
		origin (670.000000 620.000000 218.662018);
		i (5.000000 0.000000 0.145203);
		j (0.000000 5.000000 2.838867);
		k (0.000000 0.000000 5.000000);
		fieldValues
		(
			volScalarFieldValue alpha.water 1
		);
	}
	rotatedBoxToCell
	{
		origin (675.000000 575.000000 195.338470);
		i (5.000000 0.000000 1.964050);
		j (0.000000 5.000000 1.873657);
		k (0.000000 0.000000 5.000000);
		fieldValues
		(
			volScalarFieldValue alpha.water 1
		);
	}
	rotatedBoxToCell
	{
		origin (675.000000 580.000000 197.212128);
		i (5.000000 0.000000 1.472046);
		j (0.000000 5.000000 2.175049);
		k (0.000000 0.000000 5.000000);
		fieldValues
		(
			volScalarFieldValue alpha.water 1
		);
	}
	rotatedBoxToCell
	{
		origin (675.000000 585.000000 199.387177);
		i (5.000000 0.000000 0.940735);
		j (0.000000 5.000000 2.487305);
		k (0.000000 0.000000 5.000000);
		fieldValues
		(
			volScalarFieldValue alpha.water 1
		);
	}
	rotatedBoxToCell
	{
		origin (675.000000 590.000000 201.874481);
		i (5.000000 0.000000 0.470215);
		j (0.000000 5.000000 2.800537);
		k (0.000000 0.000000 5.000000);
		fieldValues
		(
			volScalarFieldValue alpha.water 1
		);
	}
	rotatedBoxToCell
	{
		origin (675.000000 595.000000 204.675018);
		i (5.000000 0.000000 0.189392);
		j (0.000000 5.000000 2.925476);
		k (0.000000 0.000000 5.000000);
		fieldValues
		(
			volScalarFieldValue alpha.water 1
		);
	}
	rotatedBoxToCell
	{
		origin (675.000000 600.000000 207.600494);
		i (5.000000 0.000000 -0.030518);
		j (0.000000 5.000000 2.928284);
		k (0.000000 0.000000 5.000000);
		fieldValues
		(
			volScalarFieldValue alpha.water 1
		);
	}
	rotatedBoxToCell
	{
		origin (675.000000 605.000000 210.528778);
		i (5.000000 0.000000 -0.082764);
		j (0.000000 5.000000 2.735535);
		k (0.000000 0.000000 5.000000);
		fieldValues
		(
			volScalarFieldValue alpha.water 1
		);
	}
	rotatedBoxToCell
	{
		origin (675.000000 610.000000 213.264313);
		i (5.000000 0.000000 -0.047119);
		j (0.000000 5.000000 2.722168);
		k (0.000000 0.000000 5.000000);
		fieldValues
		(
			volScalarFieldValue alpha.water 1
		);
	}
	rotatedBoxToCell
	{
		origin (675.000000 615.000000 215.986481);
		i (5.000000 0.000000 0.060547);
		j (0.000000 5.000000 2.820740);
		k (0.000000 0.000000 5.000000);
		fieldValues
		(
			volScalarFieldValue alpha.water 1
		);
	}
	rotatedBoxToCell
	{
		origin (675.000000 620.000000 218.807220);
		i (5.000000 0.000000 0.235962);
		j (0.000000 5.000000 3.021851);
		k (0.000000 0.000000 5.000000);
		fieldValues
		(
			volScalarFieldValue alpha.water 1
		);
	}
	rotatedBoxToCell
	{
		origin (675.000000 625.000000 221.829071);
		i (5.000000 0.000000 0.425415);
		j (0.000000 5.000000 3.333618);
		k (0.000000 0.000000 5.000000);
		fieldValues
		(
			volScalarFieldValue alpha.water 1
		);
	}
	rotatedBoxToCell
	{
		origin (680.000000 580.000000 198.684174);
		i (5.000000 0.000000 1.879211);
		j (0.000000 5.000000 1.643738);
		k (0.000000 0.000000 5.000000);
		fieldValues
		(
			volScalarFieldValue alpha.water 1
		);
	}
	rotatedBoxToCell
	{
		origin (680.000000 585.000000 200.327911);
		i (5.000000 0.000000 1.419067);
		j (0.000000 5.000000 2.016785);
		k (0.000000 0.000000 5.000000);
		fieldValues
		(
			volScalarFieldValue alpha.water 1
		);
	}
	rotatedBoxToCell
	{
		origin (680.000000 590.000000 202.344696);
		i (5.000000 0.000000 1.049072);
		j (0.000000 5.000000 2.519714);
		k (0.000000 0.000000 5.000000);
		fieldValues
		(
			volScalarFieldValue alpha.water 1
		);
	}
	rotatedBoxToCell
	{
		origin (680.000000 595.000000 204.864410);
		i (5.000000 0.000000 0.648804);
		j (0.000000 5.000000 2.705566);
		k (0.000000 0.000000 5.000000);
		fieldValues
		(
			volScalarFieldValue alpha.water 1
		);
	}
	rotatedBoxToCell
	{
		origin (680.000000 600.000000 207.569977);
		i (5.000000 0.000000 0.359131);
		j (0.000000 5.000000 2.876038);
		k (0.000000 0.000000 5.000000);
		fieldValues
		(
			volScalarFieldValue alpha.water 1
		);
	}
	rotatedBoxToCell
	{
		origin (680.000000 605.000000 210.446014);
		i (5.000000 0.000000 0.138489);
		j (0.000000 5.000000 2.771179);
		k (0.000000 0.000000 5.000000);
		fieldValues
		(
			volScalarFieldValue alpha.water 1
		);
	}
	rotatedBoxToCell
	{
		origin (680.000000 610.000000 213.217194);
		i (5.000000 0.000000 0.093323);
		j (0.000000 5.000000 2.829834);
		k (0.000000 0.000000 5.000000);
		fieldValues
		(
			volScalarFieldValue alpha.water 1
		);
	}
	rotatedBoxToCell
	{
		origin (680.000000 615.000000 216.047028);
		i (5.000000 0.000000 0.162292);
		j (0.000000 5.000000 2.996155);
		k (0.000000 0.000000 5.000000);
		fieldValues
		(
			volScalarFieldValue alpha.water 1
		);
	}
	rotatedBoxToCell
	{
		origin (680.000000 620.000000 219.043182);
		i (5.000000 0.000000 0.328125);
		j (0.000000 5.000000 3.211304);
		k (0.000000 0.000000 5.000000);
		fieldValues
		(
			volScalarFieldValue alpha.water 1
		);
	}
	rotatedBoxToCell
	{
		origin (680.000000 625.000000 222.254486);
		i (5.000000 0.000000 0.484314);
		j (0.000000 5.000000 3.512024);
		k (0.000000 0.000000 5.000000);
		fieldValues
		(
			volScalarFieldValue alpha.water 1
		);
	}
	rotatedBoxToCell
	{
		origin (680.000000 630.000000 225.766510);
		i (5.000000 0.000000 0.588196);
		j (0.000000 5.000000 3.518372);
		k (0.000000 0.000000 5.000000);
		fieldValues
		(
			volScalarFieldValue alpha.water 1
		);
	}
	rotatedBoxToCell
	{
		origin (685.000000 585.000000 201.746979);
		i (5.000000 0.000000 1.923706);
		j (0.000000 5.000000 1.646790);
		k (0.000000 0.000000 5.000000);
		fieldValues
		(
			volScalarFieldValue alpha.water 1
		);
	}
	rotatedBoxToCell
	{
		origin (685.000000 590.000000 203.393768);
		i (5.000000 0.000000 1.477722);
		j (0.000000 5.000000 2.119446);
		k (0.000000 0.000000 5.000000);
		fieldValues
		(
			volScalarFieldValue alpha.water 1
		);
	}
	rotatedBoxToCell
	{
		origin (685.000000 595.000000 205.513214);
		i (5.000000 0.000000 0.999695);
		j (0.000000 5.000000 2.415894);
		k (0.000000 0.000000 5.000000);
		fieldValues
		(
			volScalarFieldValue alpha.water 1
		);
	}
	rotatedBoxToCell
	{
		origin (685.000000 600.000000 207.929108);
		i (5.000000 0.000000 0.650391);
		j (0.000000 5.000000 2.655396);
		k (0.000000 0.000000 5.000000);
		fieldValues
		(
			volScalarFieldValue alpha.water 1
		);
	}
	rotatedBoxToCell
	{
		origin (685.000000 605.000000 210.584503);
		i (5.000000 0.000000 0.370972);
		j (0.000000 5.000000 2.726013);
		k (0.000000 0.000000 5.000000);
		fieldValues
		(
			volScalarFieldValue alpha.water 1
		);
	}
	rotatedBoxToCell
	{
		origin (685.000000 610.000000 213.310516);
		i (5.000000 0.000000 0.274109);
		j (0.000000 5.000000 2.898804);
		k (0.000000 0.000000 5.000000);
		fieldValues
		(
			volScalarFieldValue alpha.water 1
		);
	}
	rotatedBoxToCell
	{
		origin (685.000000 615.000000 216.209320);
		i (5.000000 0.000000 0.293701);
		j (0.000000 5.000000 3.161987);
		k (0.000000 0.000000 5.000000);
		fieldValues
		(
			volScalarFieldValue alpha.water 1
		);
	}
	rotatedBoxToCell
	{
		origin (685.000000 620.000000 219.371307);
		i (5.000000 0.000000 0.431885);
		j (0.000000 5.000000 3.367493);
		k (0.000000 0.000000 5.000000);
		fieldValues
		(
			volScalarFieldValue alpha.water 1
		);
	}
	rotatedBoxToCell
	{
		origin (685.000000 625.000000 222.738800);
		i (5.000000 0.000000 0.549927);
		j (0.000000 5.000000 3.615906);
		k (0.000000 0.000000 5.000000);
		fieldValues
		(
			volScalarFieldValue alpha.water 1
		);
	}
	rotatedBoxToCell
	{
		origin (685.000000 630.000000 226.354706);
		i (5.000000 0.000000 0.561768);
		j (0.000000 5.000000 3.579712);
		k (0.000000 0.000000 5.000000);
		fieldValues
		(
			volScalarFieldValue alpha.water 1
		);
	}
	rotatedBoxToCell
	{
		origin (685.000000 635.000000 229.934418);
		i (5.000000 0.000000 0.581909);
		j (0.000000 5.000000 3.222900);
		k (0.000000 0.000000 5.000000);
		fieldValues
		(
			volScalarFieldValue alpha.water 1
		);
	}
	rotatedBoxToCell
	{
		origin (690.000000 595.000000 206.512909);
		i (5.000000 0.000000 1.498108);
		j (0.000000 5.000000 2.066589);
		k (0.000000 0.000000 5.000000);
		fieldValues
		(
			volScalarFieldValue alpha.water 1
		);
	}
	rotatedBoxToCell
	{
		origin (690.000000 600.000000 208.579498);
		i (5.000000 0.000000 1.071472);
		j (0.000000 5.000000 2.375977);
		k (0.000000 0.000000 5.000000);
		fieldValues
		(
			volScalarFieldValue alpha.water 1
		);
	}
	rotatedBoxToCell
	{
		origin (690.000000 605.000000 210.955475);
		i (5.000000 0.000000 0.712708);
		j (0.000000 5.000000 2.629150);
		k (0.000000 0.000000 5.000000);
		fieldValues
		(
			volScalarFieldValue alpha.water 1
		);
	}
	rotatedBoxToCell
	{
		origin (690.000000 610.000000 213.584625);
		i (5.000000 0.000000 0.530396);
		j (0.000000 5.000000 2.918396);
		k (0.000000 0.000000 5.000000);
		fieldValues
		(
			volScalarFieldValue alpha.water 1
		);
	}
	rotatedBoxToCell
	{
		origin (690.000000 615.000000 216.503021);
		i (5.000000 0.000000 0.444458);
		j (0.000000 5.000000 3.300171);
		k (0.000000 0.000000 5.000000);
		fieldValues
		(
			volScalarFieldValue alpha.water 1
		);
	}
	rotatedBoxToCell
	{
		origin (690.000000 620.000000 219.803192);
		i (5.000000 0.000000 0.460510);
		j (0.000000 5.000000 3.485535);
		k (0.000000 0.000000 5.000000);
		fieldValues
		(
			volScalarFieldValue alpha.water 1
		);
	}
	rotatedBoxToCell
	{
		origin (690.000000 625.000000 223.288727);
		i (5.000000 0.000000 0.516846);
		j (0.000000 5.000000 3.627747);
		k (0.000000 0.000000 5.000000);
		fieldValues
		(
			volScalarFieldValue alpha.water 1
		);
	}
	rotatedBoxToCell
	{
		origin (690.000000 630.000000 226.916473);
		i (5.000000 0.000000 0.518250);
		j (0.000000 5.000000 3.599854);
		k (0.000000 0.000000 5.000000);
		fieldValues
		(
			volScalarFieldValue alpha.water 1
		);
	}
	rotatedBoxToCell
	{
		origin (690.000000 635.000000 230.516327);
		i (5.000000 0.000000 0.537292);
		j (0.000000 5.000000 3.239868);
		k (0.000000 0.000000 5.000000);
		fieldValues
		(
			volScalarFieldValue alpha.water 1
		);
	}
	rotatedBoxToCell
	{
		origin (690.000000 640.000000 233.756195);
		i (5.000000 0.000000 0.630493);
		j (0.000000 5.000000 2.846375);
		k (0.000000 0.000000 5.000000);
		fieldValues
		(
			volScalarFieldValue alpha.water 1
		);
	}
	rotatedBoxToCell
	{
		origin (695.000000 600.000000 209.650970);
		i (5.000000 0.000000 1.557800);
		j (0.000000 5.000000 2.017212);
		k (0.000000 0.000000 5.000000);
		fieldValues
		(
			volScalarFieldValue alpha.water 1
		);
	}
	rotatedBoxToCell
	{
		origin (695.000000 605.000000 211.668182);
		i (5.000000 0.000000 1.196106);
		j (0.000000 5.000000 2.446838);
		k (0.000000 0.000000 5.000000);
		fieldValues
		(
			volScalarFieldValue alpha.water 1
		);
	}
	rotatedBoxToCell
	{
		origin (695.000000 610.000000 214.115021);
		i (5.000000 0.000000 0.887451);
		j (0.000000 5.000000 2.832458);
		k (0.000000 0.000000 5.000000);
		fieldValues
		(
			volScalarFieldValue alpha.water 1
		);
	}
	rotatedBoxToCell
	{
		origin (695.000000 615.000000 216.947479);
		i (5.000000 0.000000 0.677734);
		j (0.000000 5.000000 3.316223);
		k (0.000000 0.000000 5.000000);
		fieldValues
		(
			volScalarFieldValue alpha.water 1
		);
	}
	rotatedBoxToCell
	{
		origin (695.000000 620.000000 220.263702);
		i (5.000000 0.000000 0.560913);
		j (0.000000 5.000000 3.541870);
		k (0.000000 0.000000 5.000000);
		fieldValues
		(
			volScalarFieldValue alpha.water 1
		);
	}
	rotatedBoxToCell
	{
		origin (695.000000 625.000000 223.805573);
		i (5.000000 0.000000 0.544922);
		j (0.000000 5.000000 3.629150);
		k (0.000000 0.000000 5.000000);
		fieldValues
		(
			volScalarFieldValue alpha.water 1
		);
	}
	rotatedBoxToCell
	{
		origin (695.000000 630.000000 227.434723);
		i (5.000000 0.000000 0.501099);
		j (0.000000 5.000000 3.618896);
		k (0.000000 0.000000 5.000000);
		fieldValues
		(
			volScalarFieldValue alpha.water 1
		);
	}
	rotatedBoxToCell
	{
		origin (695.000000 635.000000 231.053619);
		i (5.000000 0.000000 0.458191);
		j (0.000000 5.000000 3.333069);
		k (0.000000 0.000000 5.000000);
		fieldValues
		(
			volScalarFieldValue alpha.water 1
		);
	}
	rotatedBoxToCell
	{
		origin (695.000000 640.000000 234.386688);
		i (5.000000 0.000000 0.518799);
		j (0.000000 5.000000 2.841797);
		k (0.000000 0.000000 5.000000);
		fieldValues
		(
			volScalarFieldValue alpha.water 1
		);
	}
	rotatedBoxToCell
	{
		origin (695.000000 645.000000 237.228485);
		i (5.000000 0.000000 0.622131);
		j (0.000000 5.000000 2.634338);
		k (0.000000 0.000000 5.000000);
		fieldValues
		(
			volScalarFieldValue alpha.water 1
		);
	}
	rotatedBoxToCell
	{
		origin (700.000000 605.000000 212.864288);
		i (5.000000 0.000000 1.631836);
		j (0.000000 5.000000 2.138184);
		k (0.000000 0.000000 5.000000);
		fieldValues
		(
			volScalarFieldValue alpha.water 1
		);
	}
	rotatedBoxToCell
	{
		origin (700.000000 610.000000 215.002472);
		i (5.000000 0.000000 1.264343);
		j (0.000000 5.000000 2.622742);
		k (0.000000 0.000000 5.000000);
		fieldValues
		(
			volScalarFieldValue alpha.water 1
		);
	}
	rotatedBoxToCell
	{
		origin (700.000000 615.000000 217.625214);
		i (5.000000 0.000000 0.995789);
		j (0.000000 5.000000 3.199402);
		k (0.000000 0.000000 5.000000);
		fieldValues
		(