/*--------------------------------*- C++ -*----------------------------------*\
| =========                 |                                                 |
| \\      /  F ield         | OpenFOAM: The Open Source CFD Toolbox           |
|  \\    /   O peration     | Version:  3.0.1                                 |
|   \\  /    A nd           | Web:      www.OpenFOAM.org                      |
|    \\/     M anipulation  |                                                 |
\*---------------------------------------------------------------------------*/
FoamFile
{
    version     2.0;
    format      ascii;
    class       polyBoundaryMesh;
    location    "constant/polyMesh";
    object      boundary;
}
// * * * * * * * * * * * * * * * * * * * * * * * * * * * * * * * * * * * * * //

8
(
    sides
    {
        type            patch;
        nFaces          1000;
        startFace       130557;
    }
    slope
    {
        type            wall;
        inGroups        1(wall);
        nFaces          11955;
        startFace       131557;
    }
    atmosphere
    {
        type            patch;
        nFaces          11952;
        startFace       143512;
    }
    procBoundary0to1
    {
        type            processor;
        inGroups        1(processor);
        nFaces          497;
        startFace       155464;
        matchTolerance  0.0001;
        transform       unknown;
        myProcNo        0;
        neighbProcNo    1;
    }
    procBoundary0to2
    {
        type            processor;
        inGroups        1(processor);
        nFaces          470;
        startFace       155961;
        matchTolerance  0.0001;
        transform       unknown;
        myProcNo        0;
        neighbProcNo    2;
    }
    procBoundary0to4
    {
        type            processor;
        inGroups        1(processor);
        nFaces          25;
        startFace       156431;
        matchTolerance  0.0001;
        transform       unknown;
        myProcNo        0;
        neighbProcNo    4;
    }
    procBoundary0to5
    {
        type            processor;
        inGroups        1(processor);
        nFaces          1;
        startFace       156456;
        matchTolerance  0.0001;
        transform       unknown;
        myProcNo        0;
        neighbProcNo    5;
    }
    procBoundary0to6
    {
        type            processor;
        inGroups        1(processor);
        nFaces          2;
        startFace       156457;
        matchTolerance  0.0001;
        transform       unknown;
        myProcNo        0;
        neighbProcNo    6;
    }
)

// ************************************************************************* //
