FoamFile
{
	version	2.0;
	format	ascii;
	class	dictionary;
	location	"system";
	object	topoSetDict;
}
actions
(
	{
		name		finishArea;
		type		cellSet;
		action		new;
		source		rotatedBoxToCell;
		origin (250.000000 240.000000 22.879486);
		i (5.000000 0.000000 0.753998);
		j (0.000000 5.000000 0.875519);
		k (0.000000 0.000000 30.000000);
	}
	{
		name		finishArea;
		type		cellSet;
		action		add;
		source		rotatedBoxToCell;
		origin (250.000000 245.000000 23.755005);
		i (5.000000 0.000000 0.785706);
		j (0.000000 5.000000 0.852203);
		k (0.000000 0.000000 30.000000);
	}
	{
		name		finishArea;
		type		cellSet;
		action		add;
		source		rotatedBoxToCell;
		origin (250.000000 250.000000 24.607208);
		i (5.000000 0.000000 0.809692);
		j (0.000000 5.000000 0.844177);
		k (0.000000 0.000000 30.000000);
	}
	{
		name		finishArea;
		type		cellSet;
		action		add;
		source		rotatedBoxToCell;
		origin (250.000000 255.000000 25.451385);
		i (5.000000 0.000000 0.849915);
		j (0.000000 5.000000 0.868713);
		k (0.000000 0.000000 30.000000);
	}
	{
		name		finishArea;
		type		cellSet;
		action		add;
		source		rotatedBoxToCell;
		origin (250.000000 260.000000 26.320099);
		i (5.000000 0.000000 0.950104);
		j (0.000000 5.000000 0.927612);
		k (0.000000 0.000000 30.000000);
	}
	{
		name		finishArea;
		type		cellSet;
		action		add;
		source		rotatedBoxToCell;
		origin (250.000000 265.000000 27.247711);
		i (5.000000 0.000000 1.012878);
		j (0.000000 5.000000 0.893799);
		k (0.000000 0.000000 30.000000);
	}
	{
		name		finishArea;
		type		cellSet;
		action		add;
		source		rotatedBoxToCell;
		origin (250.000000 270.000000 28.141510);
		i (5.000000 0.000000 1.058685);
		j (0.000000 5.000000 0.823090);
		k (0.000000 0.000000 30.000000);
	}
	{
		name		finishArea;
		type		cellSet;
		action		add;
		source		rotatedBoxToCell;
		origin (250.000000 275.000000 28.964600);
		i (5.000000 0.000000 1.090210);
		j (0.000000 5.000000 0.777008);
		k (0.000000 0.000000 30.000000);
	}
	{
		name		finishArea;
		type		cellSet;
		action		add;
		source		rotatedBoxToCell;
		origin (250.000000 280.000000 29.741608);
		i (5.000000 0.000000 1.091278);
		j (0.000000 5.000000 0.724579);
		k (0.000000 0.000000 30.000000);
	}
	{
		name		finishArea;
		type		cellSet;
		action		add;
		source		rotatedBoxToCell;
		origin (250.000000 285.000000 30.466187);
		i (5.000000 0.000000 0.982422);
		j (0.000000 5.000000 0.790924);
		k (0.000000 0.000000 30.000000);
	}
	{
		name		finishArea;
		type		cellSet;
		action		add;
		source		rotatedBoxToCell;
		origin (250.000000 290.000000 31.257111);
		i (5.000000 0.000000 0.963074);
		j (0.000000 5.000000 0.796173);
		k (0.000000 0.000000 30.000000);
	}
	{
		name		finishArea;
		type		cellSet;
		action		add;
		source		rotatedBoxToCell;
		origin (250.000000 295.000000 32.053284);
		i (5.000000 0.000000 0.931000);
		j (0.000000 5.000000 0.645630);
		k (0.000000 0.000000 30.000000);
	}
	{
		name		finishArea;
		type		cellSet;
		action		add;
		source		rotatedBoxToCell;
		origin (250.000000 300.000000 32.698914);
		i (5.000000 0.000000 0.927887);
		j (0.000000 5.000000 0.446899);
		k (0.000000 0.000000 30.000000);
	}
	{
		name		finishArea;
		type		cellSet;
		action		add;
		source		rotatedBoxToCell;
		origin (255.000000 235.000000 22.717010);
		i (5.000000 0.000000 0.559082);
		j (0.000000 5.000000 0.916473);
		k (0.000000 0.000000 30.000000);
	}
	{
		name		finishArea;
		type		cellSet;
		action		add;
		source		rotatedBoxToCell;
		origin (255.000000 240.000000 23.633484);
		i (5.000000 0.000000 0.635925);
		j (0.000000 5.000000 0.907227);
		k (0.000000 0.000000 30.000000);
	}
	{
		name		finishArea;
		type		cellSet;
		action		add;
		source		rotatedBoxToCell;
		origin (255.000000 245.000000 24.540710);
		i (5.000000 0.000000 0.724091);
		j (0.000000 5.000000 0.876190);
		k (0.000000 0.000000 30.000000);
	}
	{
		name		finishArea;
		type		cellSet;
		action		add;
		source		rotatedBoxToCell;
		origin (255.000000 250.000000 25.416901);
		i (5.000000 0.000000 0.786591);
		j (0.000000 5.000000 0.884399);
		k (0.000000 0.000000 30.000000);
	}
	{
		name		finishArea;
		type		cellSet;
		action		add;
		source		rotatedBoxToCell;
		origin (255.000000 255.000000 26.301300);
		i (5.000000 0.000000 0.878204);
		j (0.000000 5.000000 0.968903);
		k (0.000000 0.000000 30.000000);
	}
	{
		name		finishArea;
		type		cellSet;
		action		add;
		source		rotatedBoxToCell;
		origin (255.000000 260.000000 27.270203);
		i (5.000000 0.000000 0.940002);
		j (0.000000 5.000000 0.990387);
		k (0.000000 0.000000 30.000000);
	}
	{
		name		finishArea;
		type		cellSet;
		action		add;
		source		rotatedBoxToCell;
		origin (255.000000 265.000000 28.260590);
		i (5.000000 0.000000 0.984314);
		j (0.000000 5.000000 0.939606);
		k (0.000000 0.000000 30.000000);
	}
	{
		name		finishArea;
		type		cellSet;
		action		add;
		source		rotatedBoxToCell;
		origin (255.000000 270.000000 29.200195);
		i (5.000000 0.000000 1.005188);
		j (0.000000 5.000000 0.854614);
		k (0.000000 0.000000 30.000000);
	}
	{
		name		finishArea;
		type		cellSet;
		action		add;
		source		rotatedBoxToCell;
		origin (255.000000 275.000000 30.054810);
		i (5.000000 0.000000 1.003693);
		j (0.000000 5.000000 0.778076);
		k (0.000000 0.000000 30.000000);
	}
	{
		name		finishArea;
		type		cellSet;
		action		add;
		source		rotatedBoxToCell;
		origin (255.000000 280.000000 30.832886);
		i (5.000000 0.000000 0.947205);
		j (0.000000 5.000000 0.615723);
		k (0.000000 0.000000 30.000000);
	}
	{
		name		finishArea;
		type		cellSet;
		action		add;
		source		rotatedBoxToCell;
		origin (255.000000 285.000000 31.448608);
		i (5.000000 0.000000 0.994690);
		j (0.000000 5.000000 0.771576);
		k (0.000000 0.000000 30.000000);
	}
	{
		name		finishArea;
		type		cellSet;
		action		add;
		source		rotatedBoxToCell;
		origin (255.000000 290.000000 32.220184);
		i (5.000000 0.000000 0.951904);
		j (0.000000 5.000000 0.764099);
		k (0.000000 0.000000 30.000000);
	}
	{
		name		finishArea;
		type		cellSet;
		action		add;
		source		rotatedBoxToCell;
		origin (255.000000 295.000000 32.984283);
		i (5.000000 0.000000 0.915924);
		j (0.000000 5.000000 0.642517);
		k (0.000000 0.000000 30.000000);
	}
	{
		name		finishArea;
		type		cellSet;
		action		add;
		source		rotatedBoxToCell;
		origin (255.000000 300.000000 33.626801);
		i (5.000000 0.000000 0.915985);
		j (0.000000 5.000000 0.486908);
		k (0.000000 0.000000 30.000000);
	}
	{
		name		finishArea;
		type		cellSet;
		action		add;
		source		rotatedBoxToCell;
		origin (255.000000 305.000000 34.113708);
		i (5.000000 0.000000 0.940704);
		j (0.000000 5.000000 0.326996);
		k (0.000000 0.000000 30.000000);
	}
	{
		name		finishArea;
		type		cellSet;
		action		add;
		source		rotatedBoxToCell;
		origin (255.000000 310.000000 34.440704);
		i (5.000000 0.000000 0.929382);
		j (0.000000 5.000000 0.240906);
		k (0.000000 0.000000 30.000000);
	}
	{
		name		finishArea;
		type		cellSet;
		action		add;
		source		rotatedBoxToCell;
		origin (260.000000 230.000000 22.302795);
		i (5.000000 0.000000 0.415192);
		j (0.000000 5.000000 0.973297);
		k (0.000000 0.000000 30.000000);
	}
	{
		name		finishArea;
		type		cellSet;
		action		add;
		source		rotatedBoxToCell;
		origin (260.000000 235.000000 23.276093);
		i (5.000000 0.000000 0.436005);
		j (0.000000 5.000000 0.993317);
		k (0.000000 0.000000 30.000000);
	}
	{
		name		finishArea;
		type		cellSet;
		action		add;
		source		rotatedBoxToCell;
		origin (260.000000 240.000000 24.269409);
		i (5.000000 0.000000 0.500885);
		j (0.000000 5.000000 0.995392);
		k (0.000000 0.000000 30.000000);
	}
	{
		name		finishArea;
		type		cellSet;
		action		add;
		source		rotatedBoxToCell;
		origin (260.000000 245.000000 25.264801);
		i (5.000000 0.000000 0.610809);
		j (0.000000 5.000000 0.938690);
		k (0.000000 0.000000 30.000000);
	}
	{
		name		finishArea;
		type		cellSet;
		action		add;
		source		rotatedBoxToCell;
		origin (260.000000 250.000000 26.203491);
		i (5.000000 0.000000 0.690094);
		j (0.000000 5.000000 0.976013);
		k (0.000000 0.000000 30.000000);
	}
	{
		name		finishArea;
		type		cellSet;
		action		add;
		source		rotatedBoxToCell;
		origin (260.000000 255.000000 27.179504);
		i (5.000000 0.000000 0.772095);
		j (0.000000 5.000000 1.030701);
		k (0.000000 0.000000 30.000000);
	}
	{
		name		finishArea;
		type		cellSet;
		action		add;
		source		rotatedBoxToCell;
		origin (260.000000 260.000000 28.210205);
		i (5.000000 0.000000 0.835907);
		j (0.000000 5.000000 1.034698);
		k (0.000000 0.000000 30.000000);
	}
	{
		name		finishArea;
		type		cellSet;
		action		add;
		source		rotatedBoxToCell;
		origin (260.000000 265.000000 29.244904);
		i (5.000000 0.000000 0.885803);
		j (0.000000 5.000000 0.960480);
		k (0.000000 0.000000 30.000000);
	}
	{
		name		finishArea;
		type		cellSet;
		action		add;
		source		rotatedBoxToCell;
		origin (260.000000 270.000000 30.205383);
		i (5.000000 0.000000 0.885529);
		j (0.000000 5.000000 0.853119);
		k (0.000000 0.000000 30.000000);
	}
	{
		name		finishArea;
		type		cellSet;
		action		add;
		source		rotatedBoxToCell;
		origin (260.000000 275.000000 31.058502);
		i (5.000000 0.000000 0.850708);
		j (0.000000 5.000000 0.721588);
		k (0.000000 0.000000 30.000000);
	}
	{
		name		finishArea;
		type		cellSet;
		action		add;
		source		rotatedBoxToCell;
		origin (260.000000 280.000000 31.780090);
		i (5.000000 0.000000 0.850220);
		j (0.000000 5.000000 0.663208);
		k (0.000000 0.000000 30.000000);
	}
	{
		name		finishArea;
		type		cellSet;
		action		add;
		source		rotatedBoxToCell;
		origin (260.000000 285.000000 32.443298);
		i (5.000000 0.000000 0.876404);
		j (0.000000 5.000000 0.728790);
		k (0.000000 0.000000 30.000000);
	}
	{
		name		finishArea;
		type		cellSet;
		action		add;
		source		rotatedBoxToCell;
		origin (260.000000 290.000000 33.172089);
		i (5.000000 0.000000 0.864502);
		j (0.000000 5.000000 0.728119);
		k (0.000000 0.000000 30.000000);
	}
	{
		name		finishArea;
		type		cellSet;
		action		add;
		source		rotatedBoxToCell;
		origin (260.000000 295.000000 33.900208);
		i (5.000000 0.000000 0.849701);
		j (0.000000 5.000000 0.642578);
		k (0.000000 0.000000 30.000000);
	}
	{
		name		finishArea;
		type		cellSet;
		action		add;
		source		rotatedBoxToCell;
		origin (260.000000 300.000000 34.542786);
		i (5.000000 0.000000 0.862701);
		j (0.000000 5.000000 0.511627);
		k (0.000000 0.000000 30.000000);
	}
	{
		name		finishArea;
		type		cellSet;
		action		add;
		source		rotatedBoxToCell;
		origin (260.000000 305.000000 35.054413);
		i (5.000000 0.000000 0.900574);
		j (0.000000 5.000000 0.315674);
		k (0.000000 0.000000 30.000000);
	}
	{
		name		finishArea;
		type		cellSet;
		action		add;
		source		rotatedBoxToCell;
		origin (260.000000 310.000000 35.370087);
		i (5.000000 0.000000 0.839813);
		j (0.000000 5.000000 0.260803);
		k (0.000000 0.000000 30.000000);
	}
	{
		name		finishArea;
		type		cellSet;
		action		add;
		source		rotatedBoxToCell;
		origin (260.000000 315.000000 35.630890);
		i (5.000000 0.000000 0.799622);
		j (0.000000 5.000000 0.334595);
		k (0.000000 0.000000 30.000000);
	}
	{
		name		finishArea;
		type		cellSet;
		action		add;
		source		rotatedBoxToCell;
		origin (265.000000 220.000000 21.045990);
		i (5.000000 0.000000 0.264709);
		j (0.000000 5.000000 0.767609);
		k (0.000000 0.000000 30.000000);
	}
	{
		name		finishArea;
		type		cellSet;
		action		add;
		source		rotatedBoxToCell;
		origin (265.000000 225.000000 21.813599);
		i (5.000000 0.000000 0.299011);
		j (0.000000 5.000000 0.904388);
		k (0.000000 0.000000 30.000000);
	}
	{
		name		finishArea;
		type		cellSet;
		action		add;
		source		rotatedBoxToCell;
		origin (265.000000 230.000000 22.717987);
		i (5.000000 0.000000 0.296509);
		j (0.000000 5.000000 0.994110);
		k (0.000000 0.000000 30.000000);
	}
	{
		name		finishArea;
		type		cellSet;
		action		add;
		source		rotatedBoxToCell;
		origin (265.000000 235.000000 23.712097);
		i (5.000000 0.000000 0.293213);
		j (0.000000 5.000000 1.058197);
		k (0.000000 0.000000 30.000000);
	}
	{
		name		finishArea;
		type		cellSet;
		action		add;
		source		rotatedBoxToCell;
		origin (265.000000 240.000000 24.770294);
		i (5.000000 0.000000 0.304016);
		j (0.000000 5.000000 1.105316);
		k (0.000000 0.000000 30.000000);
	}
	{
		name		finishArea;
		type		cellSet;
		action		add;
		source		rotatedBoxToCell;
		origin (265.000000 245.000000 25.875610);
		i (5.000000 0.000000 0.310699);
		j (0.000000 5.000000 1.017975);
		k (0.000000 0.000000 30.000000);
	}
	{
		name		finishArea;
		type		cellSet;
		action		add;
		source		rotatedBoxToCell;
		origin (265.000000 250.000000 26.893585);
		i (5.000000 0.000000 0.471710);
		j (0.000000 5.000000 1.058014);
		k (0.000000 0.000000 30.000000);
	}
	{
		name		finishArea;
		type		cellSet;
		action		add;
		source		rotatedBoxToCell;
		origin (265.000000 255.000000 27.951599);
		i (5.000000 0.000000 0.599609);
		j (0.000000 5.000000 1.094513);
		k (0.000000 0.000000 30.000000);
	}
	{
		name		finishArea;
		type		cellSet;
		action		add;
		source		rotatedBoxToCell;
		origin (265.000000 260.000000 29.046112);
		i (5.000000 0.000000 0.684601);
		j (0.000000 5.000000 1.084595);
		k (0.000000 0.000000 30.000000);
	}
	{
		name		finishArea;
		type		cellSet;
		action		add;
		source		rotatedBoxToCell;
		origin (265.000000 265.000000 30.130707);
		i (5.000000 0.000000 0.735382);
		j (0.000000 5.000000 0.960205);
		k (0.000000 0.000000 30.000000);
	}
	{
		name		finishArea;
		type		cellSet;
		action		add;
		source		rotatedBoxToCell;
		origin (265.000000 270.000000 31.090912);
		i (5.000000 0.000000 0.719482);
		j (0.000000 5.000000 0.818298);
		k (0.000000 0.000000 30.000000);
	}
	{
		name		finishArea;
		type		cellSet;
		action		add;
		source		rotatedBoxToCell;
		origin (265.000000 275.000000 31.909210);
		i (5.000000 0.000000 0.727997);
		j (0.000000 5.000000 0.721100);
		k (0.000000 0.000000 30.000000);
	}
	{
		name		finishArea;
		type		cellSet;
		action		add;
		source		rotatedBoxToCell;
		origin (265.000000 280.000000 32.630310);
		i (5.000000 0.000000 0.752777);
		j (0.000000 5.000000 0.689392);
		k (0.000000 0.000000 30.000000);
	}
	{
		name		finishArea;
		type		cellSet;
		action		add;
		source		rotatedBoxToCell;
		origin (265.000000 285.000000 33.319702);
		i (5.000000 0.000000 0.773102);
		j (0.000000 5.000000 0.716888);
		k (0.000000 0.000000 30.000000);
	}
	{
		name		finishArea;
		type		cellSet;
		action		add;
		source		rotatedBoxToCell;
		origin (265.000000 290.000000 34.036591);
		i (5.000000 0.000000 0.768616);
		j (0.000000 5.000000 0.713318);
		k (0.000000 0.000000 30.000000);
	}
	{
		name		finishArea;
		type		cellSet;
		action		add;
		source		rotatedBoxToCell;
		origin (265.000000 295.000000 34.749908);
		i (5.000000 0.000000 0.757996);
		j (0.000000 5.000000 0.655579);
		k (0.000000 0.000000 30.000000);
	}
	{
		name		finishArea;
		type		cellSet;
		action		add;
		source		rotatedBoxToCell;
		origin (265.000000 300.000000 35.405487);
		i (5.000000 0.000000 0.759308);
		j (0.000000 5.000000 0.549500);
		k (0.000000 0.000000 30.000000);
	}
	{
		name		finishArea;
		type		cellSet;
		action		add;
		source		rotatedBoxToCell;
		origin (265.000000 305.000000 35.954987);
		i (5.000000 0.000000 0.750214);
		j (0.000000 5.000000 0.254913);
		k (0.000000 0.000000 30.000000);
	}
	{
		name		finishArea;
		type		cellSet;
		action		add;
		source		rotatedBoxToCell;
		origin (265.000000 310.000000 36.209900);
		i (5.000000 0.000000 0.862610);
		j (0.000000 5.000000 0.220612);
		k (0.000000 0.000000 30.000000);
	}
	{
		name		finishArea;
		type		cellSet;
		action		add;
		source		rotatedBoxToCell;
		origin (265.000000 315.000000 36.430511);
		i (5.000000 0.000000 0.964783);
		j (0.000000 5.000000 0.379974);
		k (0.000000 0.000000 30.000000);
	}
	{
		name		finishArea;
		type		cellSet;
		action		add;
		source		rotatedBoxToCell;
		origin (265.000000 320.000000 36.810486);
		i (5.000000 0.000000 0.935211);
		j (0.000000 5.000000 0.250427);
		k (0.000000 0.000000 30.000000);
	}
	{
		name		finishArea;
		type		cellSet;
		action		add;
		source		rotatedBoxToCell;
		origin (270.000000 215.000000 20.641296);
		i (5.000000 0.000000 0.352997);
		j (0.000000 5.000000 0.669403);
		k (0.000000 0.000000 30.000000);
	}
	{
		name		finishArea;
		type		cellSet;
		action		add;
		source		rotatedBoxToCell;
		origin (270.000000 220.000000 21.310699);
		i (5.000000 0.000000 0.358490);
		j (0.000000 5.000000 0.801910);
		k (0.000000 0.000000 30.000000);
	}
	{
		name		finishArea;
		type		cellSet;
		action		add;
		source		rotatedBoxToCell;
		origin (270.000000 225.000000 22.112610);
		i (5.000000 0.000000 0.297394);
		j (0.000000 5.000000 0.901886);
		k (0.000000 0.000000 30.000000);
	}
	{
		name		finishArea;
		type		cellSet;
		action		add;
		source		rotatedBoxToCell;
		origin (270.000000 230.000000 23.014496);
		i (5.000000 0.000000 0.250214);
		j (0.000000 5.000000 0.990814);
		k (0.000000 0.000000 30.000000);
	}
	{
		name		finishArea;
		type		cellSet;
		action		add;
		source		rotatedBoxToCell;
		origin (270.000000 235.000000 24.005310);
		i (5.000000 0.000000 0.224274);
		j (0.000000 5.000000 1.069000);
		k (0.000000 0.000000 30.000000);
	}
	{
		name		finishArea;
		type		cellSet;
		action		add;
		source		rotatedBoxToCell;
		origin (270.000000 240.000000 25.074310);
		i (5.000000 0.000000 0.215393);
		j (0.000000 5.000000 1.112000);
		k (0.000000 0.000000 30.000000);
	}
	{
		name		finishArea;
		type		cellSet;
		action		add;
		source		rotatedBoxToCell;
		origin (270.000000 245.000000 26.186310);
		i (5.000000 0.000000 0.212097);
		j (0.000000 5.000000 1.178986);
		k (0.000000 0.000000 30.000000);
	}
	{
		name		finishArea;
		type		cellSet;
		action		add;
		source		rotatedBoxToCell;
		origin (270.000000 250.000000 27.365295);
		i (5.000000 0.000000 0.354614);
		j (0.000000 5.000000 1.185913);
		k (0.000000 0.000000 30.000000);
	}
	{
		name		finishArea;
		type		cellSet;
		action		add;
		source		rotatedBoxToCell;
		origin (270.000000 255.000000 28.551208);
		i (5.000000 0.000000 0.487793);
		j (0.000000 5.000000 1.179504);
		k (0.000000 0.000000 30.000000);
	}
	{
		name		finishArea;
		type		cellSet;
		action		add;
		source		rotatedBoxToCell;
		origin (270.000000 260.000000 29.730713);
		i (5.000000 0.000000 0.541473);
		j (0.000000 5.000000 1.135376);
		k (0.000000 0.000000 30.000000);
	}
	{
		name		finishArea;
		type		cellSet;
		action		add;
		source		rotatedBoxToCell;
		origin (270.000000 265.000000 30.866089);
		i (5.000000 0.000000 0.505219);
		j (0.000000 5.000000 0.944305);
		k (0.000000 0.000000 30.000000);
	}
	{
		name		finishArea;
		type		cellSet;
		action		add;
		source		rotatedBoxToCell;
		origin (270.000000 270.000000 31.810394);
		i (5.000000 0.000000 0.579315);
		j (0.000000 5.000000 0.826813);
		k (0.000000 0.000000 30.000000);
	}
	{
		name		finishArea;
		type		cellSet;
		action		add;
		source		rotatedBoxToCell;
		origin (270.000000 275.000000 32.637207);
		i (5.000000 0.000000 0.642395);
		j (0.000000 5.000000 0.745880);
		k (0.000000 0.000000 30.000000);
	}
	{
		name		finishArea;
		type		cellSet;
		action		add;
		source		rotatedBoxToCell;
		origin (270.000000 280.000000 33.383087);
		i (5.000000 0.000000 0.686005);
		j (0.000000 5.000000 0.709717);
		k (0.000000 0.000000 30.000000);
	}
	{
		name		finishArea;
		type		cellSet;
		action		add;
		source		rotatedBoxToCell;
		origin (270.000000 285.000000 34.092804);
		i (5.000000 0.000000 0.706787);
		j (0.000000 5.000000 0.712402);
		k (0.000000 0.000000 30.000000);
	}
	{
		name		finishArea;
		type		cellSet;
		action		add;
		source		rotatedBoxToCell;
		origin (270.000000 290.000000 34.805206);
		i (5.000000 0.000000 0.706085);
		j (0.000000 5.000000 0.702698);
		k (0.000000 0.000000 30.000000);
	}
	{
		name		finishArea;
		type		cellSet;
		action		add;
		source		rotatedBoxToCell;
		origin (270.000000 295.000000 35.507904);
		i (5.000000 0.000000 0.705383);
		j (0.000000 5.000000 0.656891);
		k (0.000000 0.000000 30.000000);
	}
	{
		name		finishArea;
		type		cellSet;
		action		add;
		source		rotatedBoxToCell;
		origin (270.000000 300.000000 36.164795);
		i (5.000000 0.000000 0.732117);
		j (0.000000 5.000000 0.540405);
		k (0.000000 0.000000 30.000000);
	}
	{
		name		finishArea;
		type		cellSet;
		action		add;
		source		rotatedBoxToCell;
		origin (270.000000 305.000000 36.705200);
		i (5.000000 0.000000 0.775513);
		j (0.000000 5.000000 0.367310);
		k (0.000000 0.000000 30.000000);
	}
	{
		name		finishArea;
		type		cellSet;
		action		add;
		source		rotatedBoxToCell;
		origin (270.000000 310.000000 37.072510);
		i (5.000000 0.000000 0.870789);
		j (0.000000 5.000000 0.322784);
		k (0.000000 0.000000 30.000000);
	}
	{
		name		finishArea;
		type		cellSet;
		action		add;
		source		rotatedBoxToCell;
		origin (270.000000 315.000000 37.395294);
		i (5.000000 0.000000 0.946716);
		j (0.000000 5.000000 0.350403);
		k (0.000000 0.000000 30.000000);
	}
	{
		name		finishArea;
		type		cellSet;
		action		add;
		source		rotatedBoxToCell;
		origin (270.000000 320.000000 37.745697);
		i (5.000000 0.000000 0.954498);
		j (0.000000 5.000000 0.265015);
		k (0.000000 0.000000 30.000000);
	}
	{
		name		finishArea;
		type		cellSet;
		action		add;
		source		rotatedBoxToCell;
		origin (270.000000 325.000000 38.010712);
		i (5.000000 0.000000 0.969177);
		j (0.000000 5.000000 0.151581);
		k (0.000000 0.000000 30.000000);
	}
	{
		name		finishArea;
		type		cellSet;
		action		add;
		source		rotatedBoxToCell;
		origin (275.000000 210.000000 20.088501);
		i (5.000000 0.000000 0.099213);
		j (0.000000 5.000000 0.905792);
		k (0.000000 0.000000 30.000000);
	}
	{
		name		finishArea;
		type		cellSet;
		action		add;
		source		rotatedBoxToCell;
		origin (275.000000 215.000000 20.994293);
		i (5.000000 0.000000 0.119904);
		j (0.000000 5.000000 0.674896);
		k (0.000000 0.000000 30.000000);
	}
	{
		name		finishArea;
		type		cellSet;
		action		add;
		source		rotatedBoxToCell;
		origin (275.000000 220.000000 21.669189);
		i (5.000000 0.000000 0.192596);
		j (0.000000 5.000000 0.740814);
		k (0.000000 0.000000 30.000000);
	}
	{
		name		finishArea;
		type		cellSet;
		action		add;
		source		rotatedBoxToCell;
		origin (275.000000 225.000000 22.410004);
		i (5.000000 0.000000 0.213898);
		j (0.000000 5.000000 0.854706);
		k (0.000000 0.000000 30.000000);
	}
	{
		name		finishArea;
		type		cellSet;
		action		add;
		source		rotatedBoxToCell;
		origin (275.000000 230.000000 23.264709);
		i (5.000000 0.000000 0.215302);
		j (0.000000 5.000000 0.964874);
		k (0.000000 0.000000 30.000000);
	}
	{
		name		finishArea;
		type		cellSet;
		action		add;
		source		rotatedBoxToCell;
		origin (275.000000 235.000000 24.229584);
		i (5.000000 0.000000 0.228210);
		j (0.000000 5.000000 1.060120);
		k (0.000000 0.000000 30.000000);
	}
	{
		name		finishArea;
		type		cellSet;
		action		add;
		source		rotatedBoxToCell;
		origin (275.000000 240.000000 25.289703);
		i (5.000000 0.000000 0.260406);
		j (0.000000 5.000000 1.108704);
		k (0.000000 0.000000 30.000000);
	}
	{
		name		finishArea;
		type		cellSet;
		action		add;
		source		rotatedBoxToCell;
		origin (275.000000 245.000000 26.398407);
		i (5.000000 0.000000 0.294586);
		j (0.000000 5.000000 1.321503);
		k (0.000000 0.000000 30.000000);
	}
	{
		name		finishArea;
		type		cellSet;
		action		add;
		source		rotatedBoxToCell;
		origin (275.000000 250.000000 27.719910);
		i (5.000000 0.000000 0.404999);
		j (0.000000 5.000000 1.319092);
		k (0.000000 0.000000 30.000000);
	}
	{
		name		finishArea;
		type		cellSet;
		action		add;
		source		rotatedBoxToCell;
		origin (275.000000 255.000000 29.039001);
		i (5.000000 0.000000 0.513702);
		j (0.000000 5.000000 1.233185);
		k (0.000000 0.000000 30.000000);
	}
	{
		name		finishArea;
		type		cellSet;
		action		add;
		source		rotatedBoxToCell;
		origin (275.000000 260.000000 30.272186);
		i (5.000000 0.000000 0.588898);
		j (0.000000 5.000000 1.099121);
		k (0.000000 0.000000 30.000000);
	}
	{
		name		finishArea;
		type		cellSet;
		action		add;
		source		rotatedBoxToCell;
		origin (275.000000 265.000000 31.371307);
		i (5.000000 0.000000 0.597687);
		j (0.000000 5.000000 1.018402);
		k (0.000000 0.000000 30.000000);
	}
	{
		name		finishArea;
		type		cellSet;
		action		add;
		source		rotatedBoxToCell;
		origin (275.000000 270.000000 32.389709);
		i (5.000000 0.000000 0.596191);
		j (0.000000 5.000000 0.889893);
		k (0.000000 0.000000 30.000000);
	}
	{
		name		finishArea;
		type		cellSet;
		action		add;
		source		rotatedBoxToCell;
		origin (275.000000 275.000000 33.279602);
		i (5.000000 0.000000 0.633698);
		j (0.000000 5.000000 0.789490);
		k (0.000000 0.000000 30.000000);
	}
	{
		name		finishArea;
		type		cellSet;
		action		add;
		source		rotatedBoxToCell;
		origin (275.000000 280.000000 34.069092);
		i (5.000000 0.000000 0.671600);
		j (0.000000 5.000000 0.730499);
		k (0.000000 0.000000 30.000000);
	}
	{
		name		finishArea;
		type		cellSet;
		action		add;
		source		rotatedBoxToCell;
		origin (275.000000 285.000000 34.799591);
		i (5.000000 0.000000 0.690002);
		j (0.000000 5.000000 0.711700);
		k (0.000000 0.000000 30.000000);
	}
	{
		name		finishArea;
		type		cellSet;
		action		add;
		source		rotatedBoxToCell;
		origin (275.000000 290.000000 35.511292);
		i (5.000000 0.000000 0.696716);
		j (0.000000 5.000000 0.701996);
		k (0.000000 0.000000 30.000000);
	}
	{
		name		finishArea;
		type		cellSet;
		action		add;
		source		rotatedBoxToCell;
		origin (275.000000 295.000000 36.213287);
		i (5.000000 0.000000 0.729218);
		j (0.000000 5.000000 0.683624);
		k (0.000000 0.000000 30.000000);
	}
	{
		name		finishArea;
		type		cellSet;
		action		add;
		source		rotatedBoxToCell;
		origin (275.000000 300.000000 36.896912);
		i (5.000000 0.000000 0.751801);
		j (0.000000 5.000000 0.583801);
		k (0.000000 0.000000 30.000000);
	}
	{
		name		finishArea;
		type		cellSet;
		action		add;
		source		rotatedBoxToCell;
		origin (275.000000 305.000000 37.480713);
		i (5.000000 0.000000 0.799377);
		j (0.000000 5.000000 0.462585);
		k (0.000000 0.000000 30.000000);
	}
	{
		name		finishArea;
		type		cellSet;
		action		add;
		source		rotatedBoxToCell;
		origin (275.000000 310.000000 37.943298);
		i (5.000000 0.000000 0.877991);
		j (0.000000 5.000000 0.398712);
		k (0.000000 0.000000 30.000000);
	}
	{
		name		finishArea;
		type		cellSet;
		action		add;
		source		rotatedBoxToCell;
		origin (275.000000 315.000000 38.342010);
		i (5.000000 0.000000 0.938202);
		j (0.000000 5.000000 0.358185);
		k (0.000000 0.000000 30.000000);
	}
	{
		name		finishArea;
		type		cellSet;
		action		add;
		source		rotatedBoxToCell;
		origin (275.000000 320.000000 38.700195);
		i (5.000000 0.000000 0.959198);
		j (0.000000 5.000000 0.279694);
		k (0.000000 0.000000 30.000000);
	}
	{
		name		finishArea;
		type		cellSet;
		action		add;
		source		rotatedBoxToCell;
		origin (275.000000 325.000000 38.979889);
		i (5.000000 0.000000 0.995911);
		j (0.000000 5.000000 0.156921);
		k (0.000000 0.000000 30.000000);
	}
	{
		name		finishArea;
		type		cellSet;
		action		add;
		source		rotatedBoxToCell;
		origin (275.000000 330.000000 39.136810);
		i (5.000000 0.000000 0.995483);
		j (0.000000 5.000000 0.060883);
		k (0.000000 0.000000 30.000000);
	}
	{
		name		finishArea;
		type		cellSet;
		action		add;
		source		rotatedBoxToCell;
		origin (280.000000 205.000000 19.180786);
		i (5.000000 0.000000 0.000000);
		j (0.000000 5.000000 1.006927);
		k (0.000000 0.000000 30.000000);
	}
	{
		name		finishArea;
		type		cellSet;
		action		add;
		source		rotatedBoxToCell;
		origin (280.000000 210.000000 20.187714);
		i (5.000000 0.000000 0.001282);
		j (0.000000 5.000000 0.926483);
		k (0.000000 0.000000 30.000000);
	}
	{
		name		finishArea;
		type		cellSet;
		action		add;
		source		rotatedBoxToCell;
		origin (280.000000 215.000000 21.114197);
		i (5.000000 0.000000 0.020203);
		j (0.000000 5.000000 0.747589);
		k (0.000000 0.000000 30.000000);
	}
	{
		name		finishArea;
		type		cellSet;
		action		add;
		source		rotatedBoxToCell;
		origin (280.000000 220.000000 21.861786);
		i (5.000000 0.000000 0.094025);
		j (0.000000 5.000000 0.762115);
		k (0.000000 0.000000 30.000000);
	}
	{
		name		finishArea;
		type		cellSet;
		action		add;
		source		rotatedBoxToCell;
		origin (280.000000 225.000000 22.623901);
		i (5.000000 0.000000 0.153809);
		j (0.000000 5.000000 0.856110);
		k (0.000000 0.000000 30.000000);
	}
	{
		name		finishArea;
		type		cellSet;
		action		add;
		source		rotatedBoxToCell;
		origin (280.000000 230.000000 23.480011);
		i (5.000000 0.000000 0.196991);
		j (0.000000 5.000000 0.977783);
		k (0.000000 0.000000 30.000000);
	}
	{
		name		finishArea;
		type		cellSet;
		action		add;
		source		rotatedBoxToCell;
		origin (280.000000 235.000000 24.457794);
		i (5.000000 0.000000 0.254608);
		j (0.000000 5.000000 1.092316);
		k (0.000000 0.000000 30.000000);
	}
	{
		name		finishArea;
		type		cellSet;
		action		add;
		source		rotatedBoxToCell;
		origin (280.000000 240.000000 25.550110);
		i (5.000000 0.000000 0.356781);
		j (0.000000 5.000000 1.142883);
		k (0.000000 0.000000 30.000000);
	}
	{
		name		finishArea;
		type		cellSet;
		action		add;
		source		rotatedBoxToCell;
		origin (280.000000 245.000000 26.692993);
		i (5.000000 0.000000 0.480591);
		j (0.000000 5.000000 1.431915);
		k (0.000000 0.000000 30.000000);
	}
	{
		name		finishArea;
		type		cellSet;
		action		add;
		source		rotatedBoxToCell;
		origin (280.000000 250.000000 28.124908);
		i (5.000000 0.000000 0.497101);
		j (0.000000 5.000000 1.427795);
		k (0.000000 0.000000 30.000000);
	}
	{
		name		finishArea;
		type		cellSet;
		action		add;
		source		rotatedBoxToCell;
		origin (280.000000 255.000000 29.552704);
		i (5.000000 0.000000 0.531708);
		j (0.000000 5.000000 1.308380);
		k (0.000000 0.000000 30.000000);
	}
	{
		name		finishArea;
		type		cellSet;
		action		add;
		source		rotatedBoxToCell;
		origin (280.000000 260.000000 30.861084);
		i (5.000000 0.000000 0.492706);
		j (0.000000 5.000000 1.107910);
		k (0.000000 0.000000 30.000000);
	}
	{
		name		finishArea;
		type		cellSet;
		action		add;