FoamFile
{
	version	2.0;
	format	ascii;
	class	dictionary;
	location	"system";
	object	setFieldsDict;
}
defaultFieldValues
(
	volScalarFieldValue	alpha.water	0
	volScalarFieldValue	region	0
);
regions
(
rotatedBoxToCell
{
	origin	(235.000000	260.000000	347.635803	);
	i		(5.000000	0.000000	0.838409	);
	j		(0.000000	5.000000	0.768311	);
	k		(0.000000	0.000000	20.000000	);
	fieldValues
	(
		volScalarFieldValue	region	1
	);
}
rotatedBoxToCell
{
	origin	(235.000000	265.000000	348.404114	);
	i		(5.000000	0.000000	0.848877	);
	j		(0.000000	5.000000	0.712982	);
	k		(0.000000	0.000000	20.000000	);
	fieldValues
	(
		volScalarFieldValue	region	1
	);
}
rotatedBoxToCell
{
	origin	(235.000000	270.000000	349.117096	);
	i		(5.000000	0.000000	0.886810	);
	j		(0.000000	5.000000	0.677612	);
	k		(0.000000	0.000000	20.000000	);
	fieldValues
	(
		volScalarFieldValue	region	1
	);
}
rotatedBoxToCell
{
	origin	(235.000000	275.000000	349.794708	);
	i		(5.000000	0.000000	0.916992	);
	j		(0.000000	5.000000	0.567200	);
	k		(0.000000	0.000000	20.000000	);
	fieldValues
	(
		volScalarFieldValue	region	1
	);
}
rotatedBoxToCell
{
	origin	(235.000000	280.000000	350.361908	);
	i		(5.000000	0.000000	1.048492	);
	j		(0.000000	5.000000	0.816284	);
	k		(0.000000	0.000000	20.000000	);
	fieldValues
	(
		volScalarFieldValue	region	1
	);
}
rotatedBoxToCell
{
	origin	(235.000000	285.000000	351.178192	);
	i		(5.000000	0.000000	1.059723	);
	j		(0.000000	5.000000	0.894501	);
	k		(0.000000	0.000000	20.000000	);
	fieldValues
	(
		volScalarFieldValue	region	1
	);
}
rotatedBoxToCell
{
	origin	(235.000000	290.000000	352.072693	);
	i		(5.000000	0.000000	1.062195	);
	j		(0.000000	5.000000	0.808502	);
	k		(0.000000	0.000000	20.000000	);
	fieldValues
	(
		volScalarFieldValue	region	1
	);
}
rotatedBoxToCell
{
	origin	(235.000000	295.000000	352.881195	);
	i		(5.000000	0.000000	1.100311	);
	j		(0.000000	5.000000	0.602295	);
	k		(0.000000	0.000000	20.000000	);
	fieldValues
	(
		volScalarFieldValue	region	1
	);
}
rotatedBoxToCell
{
	origin	(235.000000	300.000000	353.483490	);
	i		(5.000000	0.000000	1.174896	);
	j		(0.000000	5.000000	0.294922	);
	k		(0.000000	0.000000	20.000000	);
	fieldValues
	(
		volScalarFieldValue	region	1
	);
}
rotatedBoxToCell
{
	origin	(240.000000	250.000000	346.768097	);
	i		(5.000000	0.000000	0.856415	);
	j		(0.000000	5.000000	0.878906	);
	k		(0.000000	0.000000	20.000000	);
	fieldValues
	(
		volScalarFieldValue	region	1
	);
}
rotatedBoxToCell
{
	origin	(240.000000	255.000000	347.647003	);
	i		(5.000000	0.000000	0.822205	);
	j		(0.000000	5.000000	0.827209	);
	k		(0.000000	0.000000	20.000000	);
	fieldValues
	(
		volScalarFieldValue	region	1
	);
}
rotatedBoxToCell
{
	origin	(240.000000	260.000000	348.474213	);
	i		(5.000000	0.000000	0.825378	);
	j		(0.000000	5.000000	0.778778	);
	k		(0.000000	0.000000	20.000000	);
	fieldValues
	(
		volScalarFieldValue	region	1
	);
}
rotatedBoxToCell
{
	origin	(240.000000	265.000000	349.252991	);
	i		(5.000000	0.000000	0.870819	);
	j		(0.000000	5.000000	0.750916	);
	k		(0.000000	0.000000	20.000000	);
	fieldValues
	(
		volScalarFieldValue	region	1
	);
}
rotatedBoxToCell
{
	origin	(240.000000	270.000000	350.003906	);
	i		(5.000000	0.000000	0.949280	);
	j		(0.000000	5.000000	0.707794	);
	k		(0.000000	0.000000	20.000000	);
	fieldValues
	(
		volScalarFieldValue	region	1
	);
}
rotatedBoxToCell
{
	origin	(240.000000	275.000000	350.711700	);
	i		(5.000000	0.000000	1.014313	);
	j		(0.000000	5.000000	0.698700	);
	k		(0.000000	0.000000	20.000000	);
	fieldValues
	(
		volScalarFieldValue	region	1
	);
}
rotatedBoxToCell
{
	origin	(240.000000	280.000000	351.410400	);
	i		(5.000000	0.000000	1.077087	);
	j		(0.000000	5.000000	0.827515	);
	k		(0.000000	0.000000	20.000000	);
	fieldValues
	(
		volScalarFieldValue	region	1
	);
}
rotatedBoxToCell
{
	origin	(240.000000	285.000000	352.237915	);
	i		(5.000000	0.000000	1.051483	);
	j		(0.000000	5.000000	0.896973	);
	k		(0.000000	0.000000	20.000000	);
	fieldValues
	(
		volScalarFieldValue	region	1
	);
}
rotatedBoxToCell
{
	origin	(240.000000	290.000000	353.134888	);
	i		(5.000000	0.000000	1.009399	);
	j		(0.000000	5.000000	0.846619	);
	k		(0.000000	0.000000	20.000000	);
	fieldValues
	(
		volScalarFieldValue	region	1
	);
}
rotatedBoxToCell
{
	origin	(240.000000	295.000000	353.981506	);
	i		(5.000000	0.000000	0.990082	);
	j		(0.000000	5.000000	0.676880	);
	k		(0.000000	0.000000	20.000000	);
	fieldValues
	(
		volScalarFieldValue	region	1
	);
}
rotatedBoxToCell
{
	origin	(240.000000	300.000000	354.658386	);
	i		(5.000000	0.000000	0.957001	);
	j		(0.000000	5.000000	0.290009	);
	k		(0.000000	0.000000	20.000000	);
	fieldValues
	(
		volScalarFieldValue	region	1
	);
}
rotatedBoxToCell
{
	origin	(240.000000	305.000000	354.948395	);
	i		(5.000000	0.000000	1.042114	);
	j		(0.000000	5.000000	0.095703	);
	k		(0.000000	0.000000	20.000000	);
	fieldValues
	(
		volScalarFieldValue	region	1
	);
}
rotatedBoxToCell
{
	origin	(240.000000	310.000000	355.044098	);
	i		(5.000000	0.000000	1.136414	);
	j		(0.000000	5.000000	0.028503	);
	k		(0.000000	0.000000	20.000000	);
	fieldValues
	(
		volScalarFieldValue	region	1
	);
}
rotatedBoxToCell
{
	origin	(240.000000	315.000000	355.072601	);
	i		(5.000000	0.000000	1.208710	);
	j		(0.000000	5.000000	0.000214	);
	k		(0.000000	0.000000	20.000000	);
	fieldValues
	(
		volScalarFieldValue	region	1
	);
}
rotatedBoxToCell
{
	origin	(245.000000	245.000000	346.752899	);
	i		(5.000000	0.000000	0.842407	);
	j		(0.000000	5.000000	0.871613	);
	k		(0.000000	0.000000	20.000000	);
	fieldValues
	(
		volScalarFieldValue	region	1
	);
}
rotatedBoxToCell
{
	origin	(245.000000	250.000000	347.624512	);
	i		(5.000000	0.000000	0.822998	);
	j		(0.000000	5.000000	0.844696	);
	k		(0.000000	0.000000	20.000000	);
	fieldValues
	(
		volScalarFieldValue	region	1
	);
}
rotatedBoxToCell
{
	origin	(245.000000	255.000000	348.469208	);
	i		(5.000000	0.000000	0.822479	);
	j		(0.000000	5.000000	0.830383	);
	k		(0.000000	0.000000	20.000000	);
	fieldValues
	(
		volScalarFieldValue	region	1
	);
}
rotatedBoxToCell
{
	origin	(245.000000	260.000000	349.299591	);
	i		(5.000000	0.000000	0.860809	);
	j		(0.000000	5.000000	0.824219	);
	k		(0.000000	0.000000	20.000000	);
	fieldValues
	(
		volScalarFieldValue	region	1
	);
}
rotatedBoxToCell
{
	origin	(245.000000	265.000000	350.123810	);
	i		(5.000000	0.000000	0.964203	);
	j		(0.000000	5.000000	0.829376	);
	k		(0.000000	0.000000	20.000000	);
	fieldValues
	(
		volScalarFieldValue	region	1
	);
}
rotatedBoxToCell
{
	origin	(245.000000	270.000000	350.953186	);
	i		(5.000000	0.000000	1.028625	);
	j		(0.000000	5.000000	0.772827	);
	k		(0.000000	0.000000	20.000000	);
	fieldValues
	(
		volScalarFieldValue	region	1
	);
}
rotatedBoxToCell
{
	origin	(245.000000	275.000000	351.726013	);
	i		(5.000000	0.000000	1.078888	);
	j		(0.000000	5.000000	0.761475	);
	k		(0.000000	0.000000	20.000000	);
	fieldValues
	(
		volScalarFieldValue	region	1
	);
}
rotatedBoxToCell
{
	origin	(245.000000	280.000000	352.487488	);
	i		(5.000000	0.000000	1.094421	);
	j		(0.000000	5.000000	0.801910	);
	k		(0.000000	0.000000	20.000000	);
	fieldValues
	(
		volScalarFieldValue	region	1
	);
}
rotatedBoxToCell
{
	origin	(245.000000	285.000000	353.289398	);
	i		(5.000000	0.000000	1.017090	);
	j		(0.000000	5.000000	0.854889	);
	k		(0.000000	0.000000	20.000000	);
	fieldValues
	(
		volScalarFieldValue	region	1
	);
}
rotatedBoxToCell
{
	origin	(245.000000	290.000000	354.144287	);
	i		(5.000000	0.000000	0.953125	);
	j		(0.000000	5.000000	0.827301	);
	k		(0.000000	0.000000	20.000000	);
	fieldValues
	(
		volScalarFieldValue	region	1
	);
}
rotatedBoxToCell
{
	origin	(245.000000	295.000000	354.971588	);
	i		(5.000000	0.000000	0.921997	);
	j		(0.000000	5.000000	0.643799	);
	k		(0.000000	0.000000	20.000000	);
	fieldValues
	(
		volScalarFieldValue	region	1
	);
}
rotatedBoxToCell
{
	origin	(245.000000	300.000000	355.615387	);
	i		(5.000000	0.000000	0.923828	);
	j		(0.000000	5.000000	0.375122	);
	k		(0.000000	0.000000	20.000000	);
	fieldValues
	(
		volScalarFieldValue	region	1
	);
}
rotatedBoxToCell
{
	origin	(245.000000	305.000000	355.990509	);
	i		(5.000000	0.000000	0.995605	);
	j		(0.000000	5.000000	0.190002	);
	k		(0.000000	0.000000	20.000000	);
	fieldValues
	(
		volScalarFieldValue	region	1
	);
}
rotatedBoxToCell
{
	origin	(245.000000	310.000000	356.180511	);
	i		(5.000000	0.000000	1.083679	);
	j		(0.000000	5.000000	0.100800	);
	k		(0.000000	0.000000	20.000000	);
	fieldValues
	(
		volScalarFieldValue	region	1
	);
}
rotatedBoxToCell
{
	origin	(245.000000	315.000000	356.281311	);
	i		(5.000000	0.000000	1.163696	);
	j		(0.000000	5.000000	0.066284	);
	k		(0.000000	0.000000	20.000000	);
	fieldValues
	(
		volScalarFieldValue	region	1
	);
}
rotatedBoxToCell
{
	origin	(245.000000	320.000000	356.347595	);
	i		(5.000000	0.000000	1.238495	);
	j		(0.000000	5.000000	0.036011	);
	k		(0.000000	0.000000	20.000000	);
	fieldValues
	(
		volScalarFieldValue	region	1
	);
}
rotatedBoxToCell
{
	origin	(245.000000	325.000000	356.383606	);
	i		(5.000000	0.000000	1.285980	);
	j		(0.000000	5.000000	0.000488	);
	k		(0.000000	0.000000	20.000000	);
	fieldValues
	(
		volScalarFieldValue	region	1
	);
}
rotatedBoxToCell
{
	origin	(250.000000	240.000000	346.719788	);
	i		(5.000000	0.000000	0.753998	);
	j		(0.000000	5.000000	0.875519	);
	k		(0.000000	0.000000	20.000000	);
	fieldValues
	(
		volScalarFieldValue	region	1
	);
}
rotatedBoxToCell
{
	origin	(250.000000	245.000000	347.595306	);
	i		(5.000000	0.000000	0.785706	);
	j		(0.000000	5.000000	0.852203	);
	k		(0.000000	0.000000	20.000000	);
	fieldValues
	(
		volScalarFieldValue	region	1
	);
}
rotatedBoxToCell
{
	origin	(250.000000	250.000000	348.447510	);
	i		(5.000000	0.000000	0.809692	);
	j		(0.000000	5.000000	0.844177	);
	k		(0.000000	0.000000	20.000000	);
	fieldValues
	(
		volScalarFieldValue	region	1
	);
}
rotatedBoxToCell
{
	origin	(250.000000	255.000000	349.291687	);
	i		(5.000000	0.000000	0.849915	);
	j		(0.000000	5.000000	0.868713	);
	k		(0.000000	0.000000	20.000000	);
	fieldValues
	(
		volScalarFieldValue	region	1
	);
}
rotatedBoxToCell
{
	origin	(250.000000	260.000000	350.160400	);
	i		(5.000000	0.000000	0.950104	);
	j		(0.000000	5.000000	0.927612	);
	k		(0.000000	0.000000	20.000000	);
	fieldValues
	(
		volScalarFieldValue	region	1
	);
}
rotatedBoxToCell
{
	origin	(250.000000	265.000000	351.088013	);
	i		(5.000000	0.000000	1.012878	);
	j		(0.000000	5.000000	0.893799	);
	k		(0.000000	0.000000	20.000000	);
	fieldValues
	(
		volScalarFieldValue	region	1
	);
}
rotatedBoxToCell
{
	origin	(250.000000	270.000000	351.981812	);
	i		(5.000000	0.000000	1.058685	);
	j		(0.000000	5.000000	0.823090	);
	k		(0.000000	0.000000	20.000000	);
	fieldValues
	(
		volScalarFieldValue	region	1
	);
}
rotatedBoxToCell
{
	origin	(250.000000	275.000000	352.804901	);
	i		(5.000000	0.000000	1.090210	);
	j		(0.000000	5.000000	0.777008	);
	k		(0.000000	0.000000	20.000000	);
	fieldValues
	(
		volScalarFieldValue	region	1
	);
}
rotatedBoxToCell
{
	origin	(250.000000	280.000000	353.581909	);
	i		(5.000000	0.000000	1.091278	);
	j		(0.000000	5.000000	0.724579	);
	k		(0.000000	0.000000	20.000000	);
	fieldValues
	(
		volScalarFieldValue	region	1
	);
}
rotatedBoxToCell
{
	origin	(250.000000	285.000000	354.306488	);
	i		(5.000000	0.000000	0.982422	);
	j		(0.000000	5.000000	0.790924	);
	k		(0.000000	0.000000	20.000000	);
	fieldValues
	(
		volScalarFieldValue	region	1
	);
}
rotatedBoxToCell
{
	origin	(250.000000	290.000000	355.097412	);
	i		(5.000000	0.000000	0.963074	);
	j		(0.000000	5.000000	0.796173	);
	k		(0.000000	0.000000	20.000000	);
	fieldValues
	(
		volScalarFieldValue	region	1
	);
}
rotatedBoxToCell
{
	origin	(250.000000	295.000000	355.893585	);
	i		(5.000000	0.000000	0.931000	);
	j		(0.000000	5.000000	0.645630	);
	k		(0.000000	0.000000	20.000000	);
	fieldValues
	(
		volScalarFieldValue	region	1
	);
}
rotatedBoxToCell
{
	origin	(250.000000	300.000000	356.539215	);
	i		(5.000000	0.000000	0.927887	);
	j		(0.000000	5.000000	0.446899	);
	k		(0.000000	0.000000	20.000000	);
	fieldValues
	(
		volScalarFieldValue	region	1
	);
}
rotatedBoxToCell
{
	origin	(250.000000	305.000000	356.986115	);
	i		(5.000000	0.000000	0.967896	);
	j		(0.000000	5.000000	0.278076	);
	k		(0.000000	0.000000	20.000000	);
	fieldValues
	(
		volScalarFieldValue	region	1
	);
}
rotatedBoxToCell
{
	origin	(250.000000	310.000000	357.264191	);
	i		(5.000000	0.000000	1.016815	);
	j		(0.000000	5.000000	0.180817	);
	k		(0.000000	0.000000	20.000000	);
	fieldValues
	(
		volScalarFieldValue	region	1
	);
}
rotatedBoxToCell
{
	origin	(250.000000	315.000000	357.445007	);
	i		(5.000000	0.000000	1.076904	);
	j		(0.000000	5.000000	0.141083	);
	k		(0.000000	0.000000	20.000000	);
	fieldValues
	(
		volScalarFieldValue	region	1
	);
}
rotatedBoxToCell
{
	origin	(250.000000	320.000000	357.586090	);
	i		(5.000000	0.000000	1.163300	);
	j		(0.000000	5.000000	0.083496	);
	k		(0.000000	0.000000	20.000000	);
	fieldValues
	(
		volScalarFieldValue	region	1
	);
}
rotatedBoxToCell
{
	origin	(250.000000	325.000000	357.669586	);
	i		(5.000000	0.000000	1.201416	);
	j		(0.000000	5.000000	0.028320	);
	k		(0.000000	0.000000	20.000000	);
	fieldValues
	(
		volScalarFieldValue	region	1
	);
}
rotatedBoxToCell
{
	origin	(250.000000	330.000000	357.697906	);
	i		(5.000000	0.000000	1.215881	);
	j		(0.000000	5.000000	-0.027496	);
	k		(0.000000	0.000000	20.000000	);
	fieldValues
	(
		volScalarFieldValue	region	1
	);
}
rotatedBoxToCell
{
	origin	(255.000000	230.000000	345.656891	);
	i		(5.000000	0.000000	0.486206	);
	j		(0.000000	5.000000	0.900421	);
	k		(0.000000	0.000000	20.000000	);
	fieldValues
	(
		volScalarFieldValue	region	1
	);
}
rotatedBoxToCell
{
	origin	(255.000000	235.000000	346.557312	);
	i		(5.000000	0.000000	0.559082	);
	j		(0.000000	5.000000	0.916473	);
	k		(0.000000	0.000000	20.000000	);
	fieldValues
	(
		volScalarFieldValue	region	1
	);
}
rotatedBoxToCell
{
	origin	(255.000000	240.000000	347.473785	);
	i		(5.000000	0.000000	0.635925	);
	j		(0.000000	5.000000	0.907227	);
	k		(0.000000	0.000000	20.000000	);
	fieldValues
	(
		volScalarFieldValue	region	1
	);
}
rotatedBoxToCell
{
	origin	(255.000000	245.000000	348.381012	);
	i		(5.000000	0.000000	0.724091	);
	j		(0.000000	5.000000	0.876190	);
	k		(0.000000	0.000000	20.000000	);
	fieldValues
	(
		volScalarFieldValue	region	1
	);
}
rotatedBoxToCell
{
	origin	(255.000000	250.000000	349.257202	);
	i		(5.000000	0.000000	0.786591	);
	j		(0.000000	5.000000	0.884399	);
	k		(0.000000	0.000000	20.000000	);
	fieldValues
	(
		volScalarFieldValue	region	1
	);
}
rotatedBoxToCell
{
	origin	(255.000000	255.000000	350.141602	);
	i		(5.000000	0.000000	0.878204	);
	j		(0.000000	5.000000	0.968903	);
	k		(0.000000	0.000000	20.000000	);
	fieldValues
	(
		volScalarFieldValue	region	1
	);
}
rotatedBoxToCell
{
	origin	(255.000000	260.000000	351.110504	);
	i		(5.000000	0.000000	0.940002	);
	j		(0.000000	5.000000	0.990387	);
	k		(0.000000	0.000000	20.000000	);
	fieldValues
	(
		volScalarFieldValue	region	1
	);
}
rotatedBoxToCell
{
	origin	(255.000000	265.000000	352.100891	);
	i		(5.000000	0.000000	0.984314	);
	j		(0.000000	5.000000	0.939606	);
	k		(0.000000	0.000000	20.000000	);
	fieldValues
	(
		volScalarFieldValue	region	1
	);
}
rotatedBoxToCell
{
	origin	(255.000000	270.000000	353.040497	);
	i		(5.000000	0.000000	1.005188	);
	j		(0.000000	5.000000	0.854614	);
	k		(0.000000	0.000000	20.000000	);
	fieldValues
	(
		volScalarFieldValue	region	1
	);
}
rotatedBoxToCell
{
	origin	(255.000000	275.000000	353.895111	);
	i		(5.000000	0.000000	1.003693	);
	j		(0.000000	5.000000	0.778076	);
	k		(0.000000	0.000000	20.000000	);
	fieldValues
	(
		volScalarFieldValue	region	1
	);
}
rotatedBoxToCell
{
	origin	(255.000000	280.000000	354.673187	);
	i		(5.000000	0.000000	0.947205	);
	j		(0.000000	5.000000	0.615723	);
	k		(0.000000	0.000000	20.000000	);
	fieldValues
	(
		volScalarFieldValue	region	1
	);
}
rotatedBoxToCell
{
	origin	(255.000000	285.000000	355.288910	);
	i		(5.000000	0.000000	0.994690	);
	j		(0.000000	5.000000	0.771576	);
	k		(0.000000	0.000000	20.000000	);
	fieldValues
	(
		volScalarFieldValue	region	1
	);
}
rotatedBoxToCell
{
	origin	(255.000000	290.000000	356.060486	);
	i		(5.000000	0.000000	0.951904	);
	j		(0.000000	5.000000	0.764099	);
	k		(0.000000	0.000000	20.000000	);
	fieldValues
	(
		volScalarFieldValue	region	1
	);
}
rotatedBoxToCell
{
	origin	(255.000000	295.000000	356.824585	);
	i		(5.000000	0.000000	0.915924	);
	j		(0.000000	5.000000	0.642517	);
	k		(0.000000	0.000000	20.000000	);
	fieldValues
	(
		volScalarFieldValue	region	1
	);
}
rotatedBoxToCell
{
	origin	(255.000000	300.000000	357.467102	);
	i		(5.000000	0.000000	0.915985	);
	j		(0.000000	5.000000	0.486908	);
	k		(0.000000	0.000000	20.000000	);
	fieldValues
	(
		volScalarFieldValue	region	1
	);
}
rotatedBoxToCell
{
	origin	(255.000000	305.000000	357.954010	);
	i		(5.000000	0.000000	0.940704	);
	j		(0.000000	5.000000	0.326996	);
	k		(0.000000	0.000000	20.000000	);
	fieldValues
	(
		volScalarFieldValue	region	1
	);
}
rotatedBoxToCell
{
	origin	(255.000000	310.000000	358.281006	);
	i		(5.000000	0.000000	0.929382	);
	j		(0.000000	5.000000	0.240906	);
	k		(0.000000	0.000000	20.000000	);
	fieldValues
	(
		volScalarFieldValue	region	1
	);
}
rotatedBoxToCell
{
	origin	(255.000000	315.000000	358.521912	);
	i		(5.000000	0.000000	0.949280	);
	j		(0.000000	5.000000	0.227478	);
	k		(0.000000	0.000000	20.000000	);
	fieldValues
	(
		volScalarFieldValue	region	1
	);
}
rotatedBoxToCell
{
	origin	(255.000000	320.000000	358.749390	);
	i		(5.000000	0.000000	1.056396	);
	j		(0.000000	5.000000	0.121613	);
	k		(0.000000	0.000000	20.000000	);
	fieldValues
	(
		volScalarFieldValue	region	1
	);
}
rotatedBoxToCell
{
	origin	(255.000000	325.000000	358.871002	);
	i		(5.000000	0.000000	1.090912	);
	j		(0.000000	5.000000	0.042786	);
	k		(0.000000	0.000000	20.000000	);
	fieldValues
	(
		volScalarFieldValue	region	1
	);
}
rotatedBoxToCell
{
	origin	(255.000000	330.000000	358.913788	);
	i		(5.000000	0.000000	1.104919	);
	j		(0.000000	5.000000	-0.007294	);
	k		(0.000000	0.000000	20.000000	);
	fieldValues
	(
		volScalarFieldValue	region	1
	);
}
rotatedBoxToCell
{
	origin	(255.000000	335.000000	358.906494	);
	i		(5.000000	0.000000	1.129395	);
	j		(0.000000	5.000000	-0.064301	);
	k		(0.000000	0.000000	20.000000	);
	fieldValues
	(
		volScalarFieldValue	region	1
	);
}
rotatedBoxToCell
{
	origin	(260.000000	225.000000	345.214111	);
	i		(5.000000	0.000000	0.439789	);
	j		(0.000000	5.000000	0.928986	);
	k		(0.000000	0.000000	20.000000	);
	fieldValues
	(
		volScalarFieldValue	region	1
	);
}
rotatedBoxToCell
{
	origin	(260.000000	230.000000	346.143097	);
	i		(5.000000	0.000000	0.415192	);
	j		(0.000000	5.000000	0.973297	);
	k		(0.000000	0.000000	20.000000	);
	fieldValues
	(
		volScalarFieldValue	region	1
	);
}
rotatedBoxToCell
{
	origin	(260.000000	235.000000	347.116394	);
	i		(5.000000	0.000000	0.436005	);
	j		(0.000000	5.000000	0.993317	);
	k		(0.000000	0.000000	20.000000	);
	fieldValues
	(
		volScalarFieldValue	region	1
	);
}
rotatedBoxToCell
{
	origin	(260.000000	240.000000	348.109711	);
	i		(5.000000	0.000000	0.500885	);
	j		(0.000000	5.000000	0.995392	);
	k		(0.000000	0.000000	20.000000	);
	fieldValues
	(
		volScalarFieldValue	region	1
	);
}
rotatedBoxToCell
{
	origin	(260.000000	245.000000	349.105103	);
	i		(5.000000	0.000000	0.610809	);
	j		(0.000000	5.000000	0.938690	);
	k		(0.000000	0.000000	20.000000	);
	fieldValues
	(
		volScalarFieldValue	region	1
	);
}
rotatedBoxToCell
{
	origin	(260.000000	250.000000	350.043793	);
	i		(5.000000	0.000000	0.690094	);
	j		(0.000000	5.000000	0.976013	);
	k		(0.000000	0.000000	20.000000	);
	fieldValues
	(
		volScalarFieldValue	region	1
	);
}
rotatedBoxToCell
{
	origin	(260.000000	255.000000	351.019806	);
	i		(5.000000	0.000000	0.772095	);
	j		(0.000000	5.000000	1.030701	);
	k		(0.000000	0.000000	20.000000	);
	fieldValues
	(
		volScalarFieldValue	region	1
	);
}
rotatedBoxToCell
{
	origin	(260.000000	260.000000	352.050507	);
	i		(5.000000	0.000000	0.835907	);
	j		(0.000000	5.000000	1.034698	);
	k		(0.000000	0.000000	20.000000	);
	fieldValues
	(
		volScalarFieldValue	region	1
	);
}
rotatedBoxToCell
{
	origin	(260.000000	265.000000	353.085205	);
	i		(5.000000	0.000000	0.885803	);
	j		(0.000000	5.000000	0.960480	);
	k		(0.000000	0.000000	20.000000	);
	fieldValues
	(
		volScalarFieldValue	region	1
	);
}
rotatedBoxToCell
{
	origin	(260.000000	270.000000	354.045685	);
	i		(5.000000	0.000000	0.885529	);
	j		(0.000000	5.000000	0.853119	);
	k		(0.000000	0.000000	20.000000	);
	fieldValues
	(
		volScalarFieldValue	region	1
	);
}
rotatedBoxToCell
{
	origin	(260.000000	275.000000	354.898804	);
	i		(5.000000	0.000000	0.850708	);
	j		(0.000000	5.000000	0.721588	);
	k		(0.000000	0.000000	20.000000	);
	fieldValues
	(
		volScalarFieldValue	region	1
	);
}
rotatedBoxToCell
{
	origin	(260.000000	280.000000	355.620392	);
	i		(5.000000	0.000000	0.850220	);
	j		(0.000000	5.000000	0.663208	);
	k		(0.000000	0.000000	20.000000	);
	fieldValues
	(
		volScalarFieldValue	region	1
	);
}
rotatedBoxToCell
{
	origin	(260.000000	285.000000	356.283600	);
	i		(5.000000	0.000000	0.876404	);
	j		(0.000000	5.000000	0.728790	);
	k		(0.000000	0.000000	20.000000	);
	fieldValues
	(
		volScalarFieldValue	region	1
	);
}
rotatedBoxToCell
{
	origin	(260.000000	290.000000	357.012390	);
	i		(5.000000	0.000000	0.864502	);
	j		(0.000000	5.000000	0.728119	);
	k		(0.000000	0.000000	20.000000	);
	fieldValues
	(
		volScalarFieldValue	region	1
	);
}
rotatedBoxToCell
{
	origin	(260.000000	295.000000	357.740509	);
	i		(5.000000	0.000000	0.849701	);
	j		(0.000000	5.000000	0.642578	);
	k		(0.000000	0.000000	20.000000	);
	fieldValues
	(
		volScalarFieldValue	region	1
	);
}
rotatedBoxToCell
{
	origin	(260.000000	300.000000	358.383087	);
	i		(5.000000	0.000000	0.862701	);
	j		(0.000000	5.000000	0.511627	);
	k		(0.000000	0.000000	20.000000	);
	fieldValues
	(
		volScalarFieldValue	region	1
	);
}
rotatedBoxToCell
{
	origin	(260.000000	305.000000	358.894714	);
	i		(5.000000	0.000000	0.900574	);
	j		(0.000000	5.000000	0.315674	);
	k		(0.000000	0.000000	20.000000	);
	fieldValues
	(
		volScalarFieldValue	region	1
	);
}
rotatedBoxToCell
{
	origin	(260.000000	310.000000	359.210388	);
	i		(5.000000	0.000000	0.839813	);
	j		(0.000000	5.000000	0.260803	);
	k		(0.000000	0.000000	20.000000	);
	fieldValues
	(
		volScalarFieldValue	region	1
	);
}
rotatedBoxToCell
{
	origin	(260.000000	315.000000	359.471191	);
	i		(5.000000	0.000000	0.799622	);
	j		(0.000000	5.000000	0.334595	);
	k		(0.000000	0.000000	20.000000	);
	fieldValues
	(
		volScalarFieldValue	region	1
	);
}
rotatedBoxToCell
{
	origin	(260.000000	320.000000	359.805786	);
	i		(5.000000	0.000000	0.845001	);
	j		(0.000000	5.000000	0.156128	);
	k		(0.000000	0.000000	20.000000	);
	fieldValues
	(
		volScalarFieldValue	region	1
	);
}
rotatedBoxToCell
{
	origin	(260.000000	325.000000	359.961914	);
	i		(5.000000	0.000000	0.939301	);
	j		(0.000000	5.000000	0.056793	);
	k		(0.000000	0.000000	20.000000	);
	fieldValues
	(
		volScalarFieldValue	region	1
	);
}
rotatedBoxToCell
{
	origin	(260.000000	330.000000	360.018707	);
	i		(5.000000	0.000000	1.009491	);
	j		(0.000000	5.000000	0.017181	);
	k		(0.000000	0.000000	20.000000	);
	fieldValues
	(
		volScalarFieldValue	region	1
	);
}
rotatedBoxToCell
{
	origin	(260.000000	335.000000	360.035889	);
	i		(5.000000	0.000000	1.048523	);
	j		(0.000000	5.000000	-0.012085	);
	k		(0.000000	0.000000	20.000000	);
	fieldValues
	(
		volScalarFieldValue	region	1
	);
}
rotatedBoxToCell
{
	origin	(260.000000	340.000000	360.023804	);
	i		(5.000000	0.000000	1.068604	);
	j		(0.000000	5.000000	-0.065704	);
	k		(0.000000	0.000000	20.000000	);
	fieldValues
	(
		volScalarFieldValue	region	1
	);
}
rotatedBoxToCell
{
	origin	(265.000000	220.000000	344.886292	);
	i		(5.000000	0.000000	0.264709	);
	j		(0.000000	5.000000	0.767609	);
	k		(0.000000	0.000000	20.000000	);
	fieldValues
	(
		volScalarFieldValue	region	1
	);
}
rotatedBoxToCell
{
	origin	(265.000000	225.000000	345.653900	);
	i		(5.000000	0.000000	0.299011	);
	j		(0.000000	5.000000	0.904388	);
	k		(0.000000	0.000000	20.000000	);
	fieldValues
	(
		volScalarFieldValue	region	1
	);
}
rotatedBoxToCell
{
	origin	(265.000000	230.000000	346.558289	);
	i		(5.000000	0.000000	0.296509	);
	j		(0.000000	5.000000	0.994110	);
	k		(0.000000	0.000000	20.000000	);
	fieldValues
	(
		volScalarFieldValue	region	1
	);
}
rotatedBoxToCell
{
	origin	(265.000000	235.000000	347.552399	);
	i		(5.000000	0.000000	0.293213	);
	j		(0.000000	5.000000	1.058197	);
	k		(0.000000	0.000000	20.000000	);
	fieldValues
	(
		volScalarFieldValue	region	1
	);
}
rotatedBoxToCell
{
	origin	(265.000000	240.000000	348.610596	);
	i		(5.000000	0.000000	0.304016	);
	j		(0.000000	5.000000	1.105316	);
	k		(0.000000	0.000000	20.000000	);
	fieldValues
	(
		volScalarFieldValue	region	1
	);
}
rotatedBoxToCell
{
	origin	(265.000000	245.000000	349.715912	);
	i		(5.000000	0.000000	0.310699	);
	j		(0.000000	5.000000	1.017975	);
	k		(0.000000	0.000000	20.000000	);
	fieldValues
	(
		volScalarFieldValue	region	1
	);
}
rotatedBoxToCell
{
	origin	(265.000000	250.000000	350.733887	);
	i		(5.000000	0.000000	0.471710	);
	j		(0.000000	5.000000	1.058014	);
	k		(0.000000	0.000000	20.000000	);
	fieldValues
	(
		volScalarFieldValue	region	1
	);
}
rotatedBoxToCell
{
	origin	(265.000000	255.000000	351.791901	);
	i		(5.000000	0.000000	0.599609	);
	j		(0.000000	5.000000	1.094513	);
	k		(0.000000	0.000000	20.000000	);
	fieldValues
	(
		volScalarFieldValue	region	1
	);
}
rotatedBoxToCell
{
	origin	(265.000000	260.000000	352.886414	);
	i		(5.000000	0.000000	0.684601	);
	j		(0.000000	5.000000	1.084595	);
	k		(0.000000	0.000000	20.000000	);
	fieldValues
	(
		volScalarFieldValue	region	1
	);
}
rotatedBoxToCell
{
	origin	(265.000000	265.000000	353.971008	);
	i		(5.000000	0.000000	0.735382	);
	j		(0.000000	5.000000	0.960205	);
	k		(0.000000	0.000000	20.000000	);
	fieldValues
	(
		volScalarFieldValue	region	1
	);
}
rotatedBoxToCell
{
	origin	(265.000000	270.000000	354.931213	);
	i		(5.000000	0.000000	0.719482	);
	j		(0.000000	5.000000	0.818298	);
	k		(0.000000	0.000000	20.000000	);
	fieldValues
	(
		volScalarFieldValue	region	1
	);
}
rotatedBoxToCell
{
	origin	(265.000000	275.000000	355.749512	);
	i		(5.000000	0.000000	0.727997	);
	j		(0.000000	5.000000	0.721100	);
	k		(0.000000	0.000000	20.000000	);
	fieldValues
	(
		volScalarFieldValue	region	1
	);
}
rotatedBoxToCell
{
	origin	(265.000000	280.000000	356.470612	);
	i		(5.000000	0.000000	0.752777	);
	j		(0.000000	5.000000	0.689392	);
	k		(0.000000	0.000000	20.000000	);
	fieldValues
	(
		volScalarFieldValue	region	1
	);
}
rotatedBoxToCell
{
	origin	(265.000000	285.000000	357.160004	);
	i		(5.000000	0.000000	0.773102	);
	j		(0.000000	5.000000	0.716888	);
	k		(0.000000	0.000000	20.000000	);
	fieldValues
	(
		volScalarFieldValue	region	1
	);
}
rotatedBoxToCell
{
	origin	(265.000000	290.000000	357.876892	);
	i		(5.000000	0.000000	0.768616	);
	j		(0.000000	5.000000	0.713318	);
	k		(0.000000	0.000000	20.000000	);
	fieldValues
	(
		volScalarFieldValue	region	1
	);
}
rotatedBoxToCell
{
	origin	(265.000000	295.000000	358.590210	);
	i		(5.000000	0.000000	0.757996	);
	j		(0.000000	5.000000	0.655579	);
	k		(0.000000	0.000000	20.000000	);
	fieldValues
	(
		volScalarFieldValue	region	1
	);
}
rotatedBoxToCell
{
	origin	(265.000000	300.000000	359.245789	);
	i		(5.000000	0.000000	0.759308	);
	j		(0.000000	5.000000	0.549500	);
	k		(0.000000	0.000000	20.000000	);
	fieldValues
	(
		volScalarFieldValue	region	1
	);
}
rotatedBoxToCell
{
	origin	(265.000000	305.000000	359.795288	);
	i		(5.000000	0.000000	0.750214	);
	j		(0.000000	5.000000	0.254913	);
	k		(0.000000	0.000000	20.000000	);
	fieldValues
	(
		volScalarFieldValue	region	1
	);
}
rotatedBoxToCell
{
	origin	(265.000000	310.000000	360.050201	);
	i		(5.000000	0.000000	0.862610	);
	j		(0.000000	5.000000	0.220612	);
	k		(0.000000	0.000000	20.000000	);
	fieldValues
	(
		volScalarFieldValue	region	1
	);
}
rotatedBoxToCell
{
	origin	(265.000000	315.000000	360.270813	);
	i		(5.000000	0.000000	0.964783	);
	j		(0.000000	5.000000	0.379974	);
	k		(0.000000	0.000000	20.000000	);
	fieldValues
	(
		volScalarFieldValue	region	1
	);
}
rotatedBoxToCell
{
	origin	(265.000000	320.000000	360.650787	);
	i		(5.000000	0.000000	0.935211	);
	j		(0.000000	5.000000	0.250427	);
	k		(0.000000	0.000000	20.000000	);
	fieldValues
	(
		volScalarFieldValue	region	1
	);
}
rotatedBoxToCell
{
	origin	(265.000000	325.000000	360.901215	);
	i		(5.000000	0.000000	0.949799	);
	j		(0.000000	5.000000	0.126984	);
	k		(0.000000	0.000000	20.000000	);
	fieldValues
	(
		volScalarFieldValue	region	1
	);
}
rotatedBoxToCell
{
	origin	(265.000000	330.000000	361.028198	);
	i		(5.000000	0.000000	0.974396	);
	j		(0.000000	5.000000	0.056213	);
	k		(0.000000	0.000000	20.000000	);
	fieldValues
	(
		volScalarFieldValue	region	1
	);
}
rotatedBoxToCell
{
	origin	(265.000000	335.000000	361.084412	);
	i		(5.000000	0.000000	0.985992	);
	j		(0.000000	5.000000	0.007996	);
	k		(0.000000	0.000000	20.000000	);
	fieldValues
	(
		volScalarFieldValue	region	1
	);
}
rotatedBoxToCell
{
	origin	(265.000000	340.000000	361.092407	);
	i		(5.000000	0.000000	0.987579	);
	j		(0.000000	5.000000	-0.059204	);
	k		(0.000000	0.000000	20.000000	);
	fieldValues
	(
		volScalarFieldValue	region	1
	);
}
rotatedBoxToCell
{
	origin	(265.000000	345.000000	361.033203	);
	i		(5.000000	0.000000	0.990387	);
	j		(0.000000	5.000000	-0.165009	);
	k		(0.000000	0.000000	20.000000	);
	fieldValues
	(
		volScalarFieldValue	region	1
	);
}
rotatedBoxToCell
{
	origin	(270.000000	215.000000	344.481598	);
	i		(5.000000	0.000000	0.352997	);
	j		(0.000000	5.000000	0.669403	);
	k		(0.000000	0.000000	20.000000	);
	fieldValues
	(
		volScalarFieldValue	region	1
	);
}
rotatedBoxToCell
{
	origin	(270.000000	220.000000	345.151001	);
	i		(5.000000	0.000000	0.358490	);
	j		(0.000000	5.000000	0.801910	);
	k		(0.000000	0.000000	20.000000	);
	fieldValues
	(
		volScalarFieldValue	region	1
	);
}
rotatedBoxToCell
{
	origin	(270.000000	225.000000	345.952911	);
	i		(5.000000	0.000000	0.297394	);